17
Properties=species:S:1:pos:R:3 gdb_86771=T pbc="F F F"
C        0.00420000       1.44250000       0.12910000
N       -0.00420000       0.00430000       0.06510000
C       -1.09150000      -0.97210000       0.00050000
C       -0.00300000      -2.08690000      -0.01090000
C        0.04660000      -2.98070000      -1.25620000
C        1.16050000      -3.92780000      -1.23260000
N        2.02120000      -4.69770000      -1.20950000
C        1.01580000      -0.91440000       0.03680000
O        2.21200000      -0.80040000       0.03540000
H        1.04770000       1.76520000       0.15270000
H       -0.48420000       1.88690000      -0.74650000
H       -0.50030000       1.80790000       1.03180000
H       -1.75320000      -0.97030000       0.87370000
H       -1.69700000      -0.90490000      -0.91210000
H        0.01160000      -2.69220000       0.89800000
H       -0.88370000      -3.55480000      -1.34030000
H        0.12490000      -2.36670000      -2.16110000
