13
Properties=species:S:1:pos:R:3 gdb_25532=T pbc="F F F"
N       -0.08770000      -0.23440000       1.26070000
C       -0.01170000      -0.17140000      -0.00820000
N       -1.10740000       0.14240000      -0.77770000
C       -2.35670000       0.41130000      -0.27030000
C       -2.90440000       0.46540000       0.94550000
O       -4.25170000       0.80130000       0.78050000
C       -4.49300000       0.94460000      -0.54270000
O       -5.52460000       1.22680000      -1.05980000
O       -3.31180000       0.70290000      -1.21890000
H        0.81360000      -0.47770000       1.66330000
H        0.87930000      -0.34710000      -0.61880000
H       -1.01640000       0.18470000      -1.77920000
H       -2.52620000       0.31050000       1.93470000
