21
Properties=species:S:1:pos:R:3 gdb_93052=T pbc="F F F"
C       -0.14450000       1.52150000       0.09160000
C       -0.02290000       0.02800000      -0.04200000
C       -0.07380000      -0.56650000      -1.24580000
C        0.06230000      -1.98240000      -1.57450000
C        0.00100000      -3.07390000      -0.79670000
C       -0.28130000      -3.19150000       0.67350000
C       -0.76660000      -1.94230000       1.41240000
O       -0.83000000      -2.20390000       2.81450000
C        0.16200000      -0.73200000       1.25080000
H        0.73050000       1.94320000       0.60420000
H       -0.24110000       2.01370000      -0.87960000
H       -1.01570000       1.79320000       0.70290000
H       -0.18880000       0.08260000      -2.11180000
H        0.25160000      -2.16550000      -2.63090000
H        0.17310000      -4.03090000      -1.28590000
H       -1.03100000      -3.98630000       0.81390000
H        0.61860000      -3.55660000       1.19100000
H       -1.76310000      -1.66310000       1.03680000
H       -1.38360000      -2.98010000       2.94760000
H        1.20480000      -1.06410000       1.34910000
H       -0.02870000      -0.06780000       2.09910000
