17
Properties=species:S:1:pos:R:3 gdb_64943=T pbc="F F F"
C       -0.43600000       1.32540000      -0.60760000
C        0.00180000      -0.02850000      -0.08870000
C        1.09040000      -0.76820000      -0.76190000
O        1.33760000      -0.07180000       0.45450000
C       -0.99150000      -0.77150000       0.65290000
C       -1.84450000      -1.36080000       1.26380000
C       -2.86840000      -2.08600000       2.01800000
C       -3.34180000      -3.29990000       1.34970000
C       -3.73860000      -4.29670000       0.81130000
H        0.38560000       1.80510000      -1.14520000
H       -1.29160000       1.22010000      -1.28130000
H       -0.73470000       1.97170000       0.22290000
H        1.11800000      -1.85420000      -0.69700000
H        1.54410000      -0.33720000      -1.65420000
H       -2.47010000      -2.34800000       3.00810000
H       -3.72160000      -1.42100000       2.21030000
H       -4.08610000      -5.17830000       0.33220000
