16
Properties=species:S:1:pos:R:3 gdb_27298=T pbc="F F F"
C        0.05230000       1.50200000       0.03090000
C       -0.03320000       0.01010000      -0.00540000
C       -1.16030000      -0.72240000      -0.16830000
C       -1.13610000      -2.16830000      -0.18160000
O       -2.12140000      -2.89600000      -0.29050000
C        0.21570000      -2.75240000      -0.03250000
N        0.26490000      -4.12920000      -0.11390000
C        1.27570000      -1.92980000       0.13140000
O        1.17150000      -0.56870000       0.15010000
H        0.70390000       1.87020000      -0.76870000
H       -0.93730000       1.94470000      -0.08930000
H        0.47890000       1.84090000       0.98100000
H       -2.11570000      -0.22500000      -0.27920000
H       -0.66380000      -4.52320000      -0.01160000
H        0.98190000      -4.60220000       0.41320000
H        2.30270000      -2.24490000       0.25950000
