16
Properties=species:S:1:pos:R:3 gdb_26631=T pbc="F F F"
C        0.09710000       1.50320000       0.01420000
C       -0.03980000       0.02550000      -0.02600000
C       -1.10630000      -0.81880000       0.06650000
N       -2.45370000      -0.51070000       0.28450000
C       -0.57440000      -2.16350000      -0.03340000
C        0.77700000      -2.01400000      -0.17990000
O        1.11460000      -0.71260000      -0.18450000
C       -1.33270000      -3.35280000       0.00720000
C       -2.03240000      -4.33400000       0.03910000
H        0.87650000       1.81020000       0.72050000
H        0.35300000       1.93220000      -0.96310000
H       -0.84440000       1.95130000       0.34390000
H       -2.77690000       0.29170000      -0.23920000
H       -3.05290000      -1.30490000       0.09640000
H        1.57830000      -2.72520000      -0.29160000
H       -2.62800000      -5.21200000       0.07430000
