15
Properties=species:S:1:pos:R:3 gdb_96967=T pbc="F F F"
C       -0.09330000       1.42470000      -0.00060000
N       -0.04690000      -0.02640000       0.10460000
C       -1.08860000      -0.69350000      -0.00940000
O       -2.42530000      -0.30040000      -0.21440000
C       -2.86930000      -1.65850000      -0.04760000
C       -2.32130000      -2.51320000      -1.12190000
C       -1.42800000      -2.15370000       0.08650000
C       -0.83380000      -3.12820000       0.93470000
N       -0.36020000      -3.92840000       1.62260000
H        0.52680000       1.73600000      -0.84770000
H       -1.10230000       1.83160000      -0.12990000
H        0.35410000       1.85610000       0.90030000
H       -3.73220000      -1.83820000       0.57820000
H       -2.64290000      -3.54950000      -1.12500000
H       -2.09170000      -2.08210000      -2.09060000
