21
Properties=species:S:1:pos:R:3 gdb_72488=T pbc="F F F"
C       -0.05450000       1.49510000       0.03980000
C        0.04600000      -0.01790000      -0.02380000
C        0.71520000      -0.58240000      -1.30500000
C       -0.06590000      -1.89500000      -1.57370000
C       -1.06630000      -1.94180000      -0.39710000
C       -0.46380000      -2.61310000       0.83860000
O        0.79160000      -2.02420000       1.15300000
C        0.70640000      -0.60760000       1.23410000
O       -1.28750000      -0.56390000      -0.07990000
H        0.93970000       1.95120000       0.00320000
H       -0.63820000       1.86530000      -0.80760000
H       -0.54900000       1.81740000       0.96130000
H        0.59770000       0.12610000      -2.12890000
H        1.78380000      -0.75640000      -1.15990000
H       -0.60340000      -1.84760000      -2.52350000
H        0.58340000      -2.77320000      -1.59680000
H       -2.03200000      -2.38850000      -0.65010000
H       -1.16480000      -2.50710000       1.68180000
H       -0.27320000      -3.67770000       0.66940000
H        1.73220000      -0.24570000       1.35690000
H        0.11570000      -0.30610000       2.11400000
