16
Properties=species:S:1:pos:R:3 gdb_125104=T pbc="F F F"
C       -0.01580000       1.53970000      -0.00300000
C       -0.01810000       0.03680000      -0.05530000
C       -1.14960000      -0.70750000       0.08440000
O       -2.37100000      -0.20660000       0.28090000
C       -1.10080000      -2.16690000       0.02610000
N       -2.22120000      -2.79320000       0.16830000
N        0.15720000      -2.68030000      -0.17620000
N        1.31370000      -1.98480000      -0.32130000
C        1.20060000      -0.69160000      -0.25940000
H        0.62440000       1.90540000       0.80800000
H        0.37040000       1.96640000      -0.93580000
H       -1.02380000       1.92450000       0.15730000
H       -2.94400000      -1.00510000       0.33690000
H       -2.14430000      -3.80590000       0.12160000
H        0.27740000      -3.68040000      -0.22880000
H        2.13310000      -0.14740000      -0.37700000
