17
Properties=species:S:1:pos:R:3 gdb_52525=T pbc="F F F"
C        0.01870000       1.45530000       0.01090000
C        0.05060000       0.00370000      -0.02560000
C        0.06260000      -1.20330000      -0.06130000
C        0.03230000      -2.65280000      -0.08770000
O       -1.01210000      -3.27610000      -0.12180000
C        1.36800000      -3.33380000      -0.02890000
O        2.50320000      -2.53030000      -0.13100000
C        1.43500000      -4.59860000       0.82330000
C        1.47600000      -4.69180000      -0.67260000
H        0.94600000       1.88610000      -0.38040000
H       -0.81660000       1.84310000      -0.58170000
H       -0.11060000       1.81180000       1.03890000
H        2.48520000      -1.89090000       0.59030000
H        2.36170000      -4.74080000       1.36700000
H        0.52440000      -4.89770000       1.32900000
H        0.59190000      -5.05330000      -1.18380000
H        2.42820000      -4.90260000      -1.14480000
