20
Properties=species:S:1:pos:R:3 gdb_106643=T pbc="F F F"
C       -0.13770000       1.51010000       0.09920000
C        0.13770000       0.00530000      -0.03150000
C        0.75300000      -0.57440000       1.20000000
C        0.10950000      -1.03740000       2.46150000
C        1.04900000      -1.98180000       1.68980000
C        0.67640000      -3.35420000       1.21500000
C        2.43480000      -1.45790000       1.88750000
N        3.53910000      -1.97270000       2.18360000
O        2.11620000      -0.14910000       1.53050000
H        0.78790000       2.05510000       0.30430000
H       -0.56960000       1.90680000      -0.82400000
H       -0.83620000       1.71250000       0.91720000
H       -0.79510000      -0.53410000      -0.23410000
H        0.80460000      -0.18060000      -0.88170000
H        0.40750000      -0.61140000       3.41460000
H       -0.93830000      -1.31600000       2.38640000
H       -0.37310000      -3.39250000       0.90710000
H        1.29530000      -3.65980000       0.36610000
H        0.81770000      -4.09140000       2.01210000
H        4.28680000      -1.27690000       2.16660000
