15
Properties=species:S:1:pos:R:3 gdb_29962=T pbc="F F F"
C       -0.01310000       1.45840000       0.00230000
N        0.01190000       0.01180000      -0.03080000
C        0.05720000      -0.80460000      -1.16390000
C        0.07020000      -2.08950000      -0.77310000
N        0.03290000      -2.09180000       0.62890000
C        0.03160000      -3.21140000       1.45040000
O        0.06350000      -4.33990000       1.02850000
C       -0.00430000      -0.76160000       1.11520000
O       -0.04130000      -0.40020000       2.27240000
H        0.88670000       1.87880000      -0.45830000
H       -0.89520000       1.84870000      -0.51540000
H       -0.05160000       1.75560000       1.05130000
H        0.07580000      -0.38270000      -2.15470000
H        0.10140000      -3.01250000      -1.32280000
H       -0.00190000      -2.92670000       2.51290000
