18
Properties=species:S:1:pos:R:3 gdb_22658=T pbc="F F F"
O       -0.14780000       1.34820000       0.06690000
N        0.02090000      -0.04660000      -0.00840000
C       -1.10300000      -0.64020000      -0.02940000
C       -2.48490000      -0.02420000      -0.02410000
C       -3.44040000      -1.23360000       0.00540000
C       -2.63180000      -2.38780000      -0.64550000
C       -1.19830000      -2.14810000      -0.11650000
C       -3.17520000      -3.74300000      -0.26510000
O       -3.63020000      -4.55430000      -1.02780000
H        0.76210000       1.66370000       0.06270000
H       -2.61880000       0.66440000       0.81470000
H       -2.61370000       0.57320000      -0.93480000
H       -3.67790000      -1.49900000       1.04340000
H       -4.38680000      -1.05190000      -0.50820000
H       -2.65910000      -2.30240000      -1.73600000
H       -0.41710000      -2.58690000      -0.73980000
H       -1.09900000      -2.58450000       0.88830000
H       -3.13200000      -3.94660000       0.83350000
