21
Properties=species:S:1:pos:R:3 gdb_83827=T pbc="F F F"
O        0.07090000       1.45810000      -0.13130000
C        0.00760000       0.06720000       0.01770000
C       -1.36090000      -0.53950000       0.15010000
C       -2.61850000       0.29890000       0.05200000
C       -3.73660000      -0.41710000      -0.72120000
C       -3.48490000      -0.68490000      -2.18520000
C       -2.35950000      -0.58130000      -2.89560000
C       -0.98060000      -0.16860000      -2.41880000
C       -0.54480000      -0.79420000      -1.10300000
H        0.82930000       1.66320000      -0.68850000
H        0.80530000      -0.35220000       0.63080000
H       -1.43530000      -1.37460000       0.84280000
H       -2.97700000       0.53570000       1.06110000
H       -2.39360000       1.25790000      -0.42110000
H       -3.97210000      -1.37160000      -0.22440000
H       -4.66040000       0.17340000      -0.64150000
H       -4.37500000      -1.00580000      -2.72610000
H       -2.42820000      -0.80410000      -3.95890000
H       -0.25010000      -0.43200000      -3.19250000
H       -0.93130000       0.92420000      -2.33290000
H       -0.11240000      -1.78670000      -1.19730000
