18
Properties=species:S:1:pos:R:3 gdb_102256=T pbc="F F F"
C        0.15210000       1.58960000       0.01630000
N        0.05840000       0.12670000      -0.03360000
H        1.03530000      -0.93320000       1.00040000
H       -0.91860000      -0.14940000       0.02740000
C        0.63170000      -0.47720000      -1.25790000
C        0.73690000      -2.00900000      -1.07840000
C        1.64790000      -2.47320000       0.06770000
O        1.63740000      -1.70590000       1.16510000
O        2.30750000      -3.47540000      -0.00980000
C       -0.12210000      -0.13680000      -2.46800000
C       -0.77930000       0.13220000      -3.43830000
H        1.20590000       1.88050000       0.06080000
H       -0.30860000       2.07820000      -0.85270000
H       -0.33700000       1.94680000       0.92550000
H        1.64740000      -0.07040000      -1.35090000
H       -0.26780000      -2.41520000      -0.90320000
H        1.10680000      -2.46870000      -1.99540000
H       -1.34520000       0.37230000      -4.30490000
