18
Properties=species:S:1:pos:R:3 gdb_77357=T pbc="F F F"
C       -0.02380000       1.40460000       0.09010000
N        0.00050000      -0.03650000      -0.04260000
C       -1.18450000      -0.85170000       0.05450000
C       -0.69870000      -2.26280000      -0.39030000
C        0.80570000      -2.23570000      -0.08530000
C        1.17480000      -0.75120000      -0.08750000
O        2.28830000      -0.27490000      -0.11140000
C       -1.78030000      -0.90490000       1.45890000
O       -1.28420000      -0.41000000       2.43550000
H        1.00280000       1.75610000      -0.02540000
H       -0.65110000       1.85630000      -0.68780000
H       -0.40010000       1.70480000       1.07310000
H       -1.98110000      -0.48840000      -0.61240000
H       -1.23700000      -3.06400000       0.12250000
H       -0.87470000      -2.38000000      -1.46220000
H        1.03510000      -2.63740000       0.90770000
H        1.41440000      -2.78110000      -0.80790000
H       -2.74140000      -1.46910000       1.51300000
