12
Properties=species:S:1:pos:R:3 gdb_20519=T pbc="F F F"
C       -0.01510000       1.48060000      -0.09250000
C       -0.02270000      -0.02410000       0.03620000
O       -0.04730000      -0.61630000       1.08560000
C        0.00080000      -0.80400000      -1.24950000
N        0.00000000      -2.09510000      -1.41150000
C        0.02690000      -2.20500000      -2.77520000
N        0.04450000      -1.07020000      -3.42730000
O        0.02620000      -0.12400000      -2.40840000
H        0.87570000       1.81310000      -0.63590000
H       -0.88070000       1.81890000      -0.67190000
H       -0.03410000       1.92300000       0.90330000
H        0.03480000      -3.15020000      -3.29780000
