17
Properties=species:S:1:pos:R:3 gdb_6344=T pbc="F F F"
C        0.05230000       1.48320000      -0.30490000
C       -0.27510000       0.19130000       0.43960000
C       -1.50450000      -0.51610000      -0.12210000
O       -2.05530000      -0.15360000      -1.15090000
N       -1.91390000      -1.59040000       0.62510000
C       -3.00370000      -2.46580000       0.42370000
N       -3.63080000      -2.33350000      -0.78350000
N       -3.22730000      -3.29140000       1.37520000
H        0.95860000       1.93870000       0.10320000
H        0.20610000       1.28920000      -1.36850000
H       -0.76530000       2.20350000      -0.21890000
H        0.56660000      -0.51180000       0.38490000
H       -0.43600000       0.38220000       1.50810000
H       -1.43340000      -1.79220000       1.48940000
H       -3.43040000      -1.49170000      -1.31160000
H       -4.53970000      -2.75440000      -0.87090000
H       -4.00980000      -3.90360000       1.15350000
