20
Properties=species:S:1:pos:R:3 gdb_70272=T pbc="F F F"
C       -0.10490000       1.50790000       0.04880000
C       -0.03170000       0.00190000       0.06220000
C       -1.23840000      -0.79180000      -0.42930000
C       -1.01380000      -2.24950000       0.05780000
C       -0.12450000      -2.10190000       1.32610000
C        0.64130000      -0.80740000       1.11660000
N        1.29620000      -0.58840000      -0.18350000
C       -2.31740000      -2.94900000       0.36480000
O       -2.69900000      -3.97040000      -0.14240000
H        0.81690000       1.93780000       0.44760000
H       -0.23450000       1.88390000      -0.97250000
H       -0.94910000       1.86730000       0.64780000
H       -2.14580000      -0.37270000       0.02710000
H       -1.37640000      -0.74100000      -1.51480000
H       -0.50780000      -2.84470000      -0.70590000
H       -0.74820000      -2.00820000       2.22580000
H        0.51920000      -2.97520000       1.47250000
H        1.14610000      -0.35700000       1.96690000
H        1.24560000      -1.41740000      -0.77090000
H       -2.93280000      -2.42420000       1.13630000
