19
Properties=species:S:1:pos:R:3 gdb_91989=T pbc="F F F"
O       -0.17140000       1.07590000       1.41770000
C       -0.06190000       0.16450000       0.33250000
C        0.92170000      -0.99500000       0.62230000
C        0.09470000      -2.08910000       1.28200000
C       -0.84190000      -1.69200000       2.39950000
C       -1.36200000      -1.81300000       0.99070000
C       -1.43800000      -0.54270000       0.13630000
C       -2.60000000       0.30260000       0.37740000
C       -3.58490000       0.96830000       0.55300000
H        0.69560000       1.46890000       1.55860000
H        0.21510000       0.70950000      -0.58000000
H        1.34240000      -1.36680000      -0.32010000
H        1.76250000      -0.64560000       1.23410000
H        0.48300000      -3.10160000       1.26640000
H       -1.13470000      -2.47410000       3.09190000
H       -0.74880000      -0.70470000       2.83390000
H       -2.05960000      -2.60790000       0.75410000
H       -1.46870000      -0.86600000      -0.91390000
H       -4.44520000       1.56670000       0.72250000
