12
Properties=species:S:1:pos:R:3 gdb_4731=T pbc="F F F"
N       -0.03060000       1.43150000       0.15560000
C        0.00760000       0.04110000       0.04080000
C       -1.04100000      -0.84020000       0.00170000
O       -0.59390000      -2.12540000      -0.02540000
C        0.76260000      -2.06600000      -0.01100000
C        1.18670000      -0.76590000       0.03270000
C        1.48000000      -3.28080000      -0.04140000
N        2.09090000      -4.26520000      -0.06710000
H        0.73650000       1.89370000      -0.31310000
H       -0.90800000       1.83990000      -0.13640000
H       -2.11070000      -0.71450000      -0.00260000
H        2.21170000      -0.43110000       0.06080000
