15
Properties=species:S:1:pos:R:3 gdb_41132=T pbc="F F F"
C        0.06000000       1.47370000      -0.21630000
O        1.50490000       1.47990000       0.08950000
C        1.35410000       0.26090000       0.83750000
C        1.19320000       0.24160000       2.33380000
C        0.29030000      -0.72520000       2.53930000
C       -0.03960000      -1.25390000       1.15260000
C        1.32210000      -1.24030000       0.29360000
O        0.62960000      -0.84090000      -0.90230000
C        0.02010000      -0.01580000       0.16690000
H       -0.48440000       2.14760000       0.45280000
H       -0.13880000       1.70030000      -1.26560000
H        1.71440000       0.86940000       3.04200000
H       -0.09770000      -1.11180000       3.47110000
H       -0.74560000      -2.06830000       0.99980000
H        2.09250000      -2.01620000       0.21080000
