11
Properties=species:S:1:pos:R:3 gdb_23692=T pbc="F F F"
F        0.07540000       0.02980000       0.00310000
C       -0.05590000       1.34420000       0.01110000
C       -1.24990000       1.98880000       0.03010000
N       -1.27790000       3.35600000       0.03710000
C       -0.17100000       4.03330000       0.02550000
C        1.17150000       3.44620000       0.00450000
O        2.23580000       4.02810000      -0.00670000
N        1.10850000       2.03300000      -0.00120000
H       -2.18430000       1.44510000       0.04000000
H       -0.21710000       5.11880000       0.03140000
H        1.98890000       1.53330000      -0.01540000
