18
Properties=species:S:1:pos:R:3 gdb_44609=T pbc="F F F"
O        0.00000000      -0.03740000       0.00410000
C       -0.00250000       1.17220000      -0.03830000
N       -1.11250000       1.98350000       0.00390000
C       -0.80880000       3.38400000      -0.02650000
C        0.10060000       3.98320000       1.04230000
C        0.63360000       3.07720000       2.15570000
C        1.69270000       2.17910000       1.46380000
C        1.22420000       2.11000000      -0.01380000
C        0.66370000       3.51330000      -0.28720000
H       -2.01450000       1.60710000       0.24770000
H       -1.53360000       4.01850000      -0.52380000
H       -0.02000000       5.04390000       1.23390000
H        1.06810000       3.66900000       2.96500000
H       -0.16610000       2.47150000       2.59630000
H        2.67440000       2.66290000       1.50150000
H        1.78470000       1.18750000       1.91500000
H        1.99820000       1.76340000      -0.69820000
H        1.07730000       4.16640000      -1.04420000
