16
Properties=species:S:1:pos:R:3 gdb_83413=T pbc="F F F"
N       -0.92190000       1.18980000      -0.09280000
H       -0.02060000       0.73480000      -0.19550000
H        1.82900000       1.28040000       3.38150000
H       -1.61420000       0.63780000      -0.58800000
C       -1.25370000       1.32740000       1.29410000
C       -1.35060000       0.21050000       2.32750000
C       -0.26810000      -0.82990000       2.07020000
O        0.76840000       0.19910000       1.98920000
C       -0.19270000       1.21190000       2.33800000
C        0.20880000       2.24380000       3.33270000
O       -0.51310000       3.13080000       3.69810000
O        1.46020000       2.07490000       3.80140000
H       -1.94510000       2.13630000       1.51890000
H       -2.16490000       0.12360000       3.03390000
H       -0.07580000      -1.49630000       2.91550000
H       -0.33350000      -1.40680000       1.14160000
