20
Properties=species:S:1:pos:R:3 gdb_90182=T pbc="F F F"
C       -0.12220000       1.54760000      -0.06030000
C        0.02700000       0.02960000       0.03030000
C        0.93080000      -0.60170000      -1.10380000
C        1.92950000      -1.25550000      -0.18000000
C        3.10910000      -2.20870000       0.06380000
C        2.58140000      -1.79500000       1.46160000
C        2.28010000      -0.33900000       1.04060000
C        0.77740000      -0.45540000       1.29770000
N        1.11900000      -1.90810000       0.97410000
H        0.85490000       2.04420000      -0.04760000
H       -0.63070000       1.84160000      -0.98430000
H       -0.70580000       1.93980000       0.77970000
H       -0.96410000      -0.43680000       0.01000000
H        0.38570000      -1.31770000      -1.72360000
H        1.37590000       0.15970000      -1.75100000
H        2.95630000      -3.25360000      -0.21900000
H        4.10210000      -1.85050000      -0.21860000
H        2.88490000      -2.17930000       2.43640000
H        2.94970000       0.52820000       1.05010000
H        0.30580000      -0.24580000       2.26150000
