20
Properties=species:S:1:pos:R:3 gdb_103815=T pbc="F F F"
C       -0.03400000       1.55380000       0.04850000
C       -0.26510000       0.05410000      -0.17750000
C        0.64660000      -0.51800000      -1.24400000
O        0.44430000       0.01180000      -2.53320000
C        2.03810000      -0.97040000      -0.91900000
C        0.98640000      -1.99840000      -1.31120000
C        0.50280000      -2.95450000      -0.26640000
N       -0.05240000      -4.10170000      -0.76160000
O        0.60560000      -2.75350000       0.93280000
H        0.99600000       1.75500000       0.36270000
H       -0.23250000       2.13490000      -0.85960000
H       -0.70040000       1.93660000       0.82670000
H       -0.10830000      -0.49750000       0.75190000
H       -1.30450000      -0.11390000      -0.48590000
H        0.76850000       0.91900000      -2.52970000
H        2.82280000      -0.76990000      -1.63920000
H        2.33280000      -0.99610000       0.12460000
H        1.04020000      -2.37720000      -2.32610000
H       -0.27160000      -4.20520000      -1.73680000
H       -0.48030000      -4.73340000      -0.10430000
