17
Properties=species:S:1:pos:R:3 gdb_76111=T pbc="F F F"
C        0.13490000       1.54590000       0.06660000
C       -0.04520000       0.06320000      -0.05180000
C       -0.96570000      -0.73720000       0.77870000
N        0.48690000      -0.93120000       0.99000000
C        0.94680000      -1.81850000      -0.13900000
C        0.37560000      -3.15580000      -0.19990000
N       -0.08070000      -4.21490000      -0.28330000
C        0.45380000      -0.78130000      -1.21740000
O       -0.55390000      -1.14420000      -2.11700000
H        1.15590000       1.84690000      -0.19060000
H       -0.55360000       2.06890000      -0.60670000
H       -0.07040000       1.87880000       1.08760000
H       -1.43260000      -0.22980000       1.61660000
H       -1.55460000      -1.53910000       0.34350000
H        2.03620000      -1.89450000      -0.10610000
H        1.31360000      -0.32570000      -1.72430000
H       -0.18290000      -1.72070000      -2.79400000
