19
Properties=species:S:1:pos:R:3 gdb_52167=T pbc="F F F"
O        0.25600000       0.41450000      -0.89360000
C        0.29660000       1.58550000      -0.66160000
O        0.82790000       2.08870000       0.46510000
C        0.88750000       3.52060000       0.60440000
C        2.28210000       4.01600000       0.31650000
C        2.81620000       4.39730000      -1.04010000
C        1.77120000       5.12370000      -1.89780000
C        1.60430000       6.19300000      -0.77040000
C        2.65590000       5.45140000       0.06850000
H       -0.10650000       2.36860000      -1.33430000
H        0.13670000       3.98640000      -0.04310000
H        0.60800000       3.72490000       1.64190000
H        3.02500000       3.49480000       0.91660000
H        3.72460000       3.94740000      -1.42200000
H        2.20590000       5.55230000      -2.80280000
H        0.88280000       4.55370000      -2.18990000
H        1.94990000       7.17770000      -1.09080000
H        0.61070000       6.31120000      -0.32610000
H        3.42220000       5.93390000       0.66360000
