23
Properties=species:S:1:pos:R:3 gdb_107143=T pbc="F F F"
C        0.08390000       1.50290000       0.25750000
C        0.00250000       0.01290000      -0.10300000
C       -1.40770000      -0.51050000      -0.12220000
C       -2.12510000      -0.98990000       1.11250000
C       -1.92980000      -1.95070000      -0.03420000
C       -2.94210000      -1.65190000      -1.12080000
C       -3.29090000      -2.54400000      -2.27120000
C       -4.34450000      -2.17340000      -1.24630000
C       -2.44070000      -0.19530000      -1.22490000
H        1.11990000       1.85600000       0.25130000
H       -0.48020000       2.11330000      -0.45600000
H       -0.33180000       1.68880000       1.25320000
H        0.46550000      -0.14940000      -1.08590000
H        0.59370000      -0.57090000       0.61410000
H       -1.48840000      -1.16280000       1.97560000
H       -3.12260000      -0.63200000       1.35850000
H       -1.37040000      -2.87400000       0.07250000
H       -3.36170000      -2.10420000      -3.26150000
H       -2.91030000      -3.56090000      -2.26400000
H       -4.67350000      -2.93930000      -0.55100000
H       -5.12440000      -1.48150000      -1.54890000
H       -3.16290000       0.59800000      -1.00110000
H       -1.97220000       0.01590000      -2.19150000
