16
Properties=species:S:1:pos:R:3 gdb_23231=T pbc="F F F"
O       -0.21720000       1.40030000      -0.00420000
N       -0.01460000       0.00020000      -0.07910000
C       -1.11770000      -0.61800000      -0.05600000
C       -2.59420000      -0.29030000       0.14070000
C       -3.26100000      -0.84320000      -1.15770000
C       -2.83450000      -2.22210000      -0.65270000
C       -2.72640000      -1.74370000       0.77050000
C       -1.44050000      -2.06820000       0.02450000
O       -0.61810000      -3.13770000       0.26360000
H        0.68770000       1.72890000       0.00580000
H       -2.89330000       0.64640000       0.59880000
H       -4.34820000      -0.72620000      -1.13530000
H       -2.86530000      -0.48140000      -2.11270000
H       -3.13300000      -3.20610000      -0.99330000
H       -3.08820000      -2.10810000       1.71970000
H       -0.17080000      -3.37050000      -0.55790000
