20
Properties=species:S:1:pos:R:3 gdb_68314=T pbc="F F F"
C        0.03470000       1.35700000       0.11480000
C        0.04270000      -0.14740000       0.05910000
C        0.64940000      -1.05380000      -1.06010000
C        0.05100000      -2.03950000      -0.01790000
C        0.69700000      -1.14100000       1.07440000
C       -1.19830000      -1.10890000       0.00420000
C       -2.21080000      -1.18950000       1.15510000
C       -3.10520000      -0.03210000       1.17840000
N       -3.80090000       0.89100000       1.18020000
H        1.05690000       1.75040000       0.12910000
H       -0.47800000       1.77940000      -0.75580000
H       -0.47980000       1.72120000       1.00990000
H        0.16540000      -1.01520000      -2.04040000
H        1.73880000      -1.04610000      -1.14910000
H        0.05380000      -3.12910000      -0.06570000
H        1.78990000      -1.13680000       1.10750000
H        0.29000000      -1.18180000       2.08690000
H       -1.74350000      -1.06610000      -0.94490000
H       -2.82320000      -2.09230000       1.04130000
H       -1.72420000      -1.26570000       2.13160000
