12
Properties=species:S:1:pos:R:3 gdb_133211=T pbc="F F F"
C       -0.03450000       1.53310000       0.04970000
C       -0.01100000       0.03770000      -0.00230000
N       -0.04960000      -0.55240000      -1.14900000
O       -0.02670000      -1.92270000      -1.16240000
C        0.03660000      -2.71310000       0.00530000
O        0.05080000      -3.89390000      -0.13810000
N        0.07710000      -2.04640000       1.22690000
C        0.05390000      -0.77800000       1.19570000
F        0.09100000      -0.11380000       2.33460000
H        0.86230000       1.91690000       0.54630000
H       -0.08430000       1.93180000      -0.96410000
H       -0.89870000       1.88670000       0.62090000
