16
Properties=species:S:1:pos:R:3 gdb_64946=T pbc="F F F"
O        0.53110000       1.16940000       0.54490000
C        0.04840000      -0.06410000       0.08270000
C       -0.81680000      -0.88130000       1.03050000
C       -1.44760000      -0.10810000      -0.09830000
C        0.90510000      -0.75430000      -0.84720000
C        1.65740000      -1.31640000      -1.60050000
C        2.56100000      -1.99380000      -2.52570000
C        3.45930000      -2.95130000      -1.86420000
N        4.16900000      -3.70490000      -1.35290000
H        1.34270000       1.00070000       1.03750000
H       -0.77050000      -1.96170000       0.96290000
H       -0.91700000      -0.47770000       2.03160000
H       -1.96500000       0.81170000       0.14790000
H       -1.84060000      -0.65180000      -0.94850000
H        1.99100000      -2.53330000      -3.29330000
H        3.17700000      -1.26210000      -3.06430000
