21
Properties=species:S:1:pos:R:3 gdb_86428=T pbc="F F F"
O       -0.02700000       1.40740000      -0.14480000
C        0.03000000       0.00970000       0.09110000
C        0.48720000      -0.39690000       1.50330000
C       -0.05780000      -1.82960000       1.65510000
O       -0.04300000      -2.35160000       2.96890000
C       -1.44280000      -1.77920000       0.97570000
C       -2.55770000      -1.01780000       1.75390000
C       -2.50580000       0.13470000       0.71230000
C       -1.37460000      -0.60380000      -0.05820000
H        0.86070000       1.76410000      -0.04240000
H        0.69640000      -0.46770000      -0.64590000
H        1.56980000      -0.33900000       1.64950000
H        0.01590000       0.26720000       2.23980000
H        0.58190000      -2.51350000       1.08420000
H       -0.62430000      -1.80580000       3.50960000
H       -1.74830000      -2.75920000       0.60570000
H       -3.50960000      -1.55050000       1.80290000
H       -2.29900000      -0.72250000       2.77750000
H       -3.42510000       0.25320000       0.13500000
H       -2.21840000       1.11490000       1.09680000
H       -1.60660000      -0.83170000      -1.09970000
