18
Properties=species:S:1:pos:R:3 gdb_93286=T pbc="F F F"
C       -0.11880000       1.56690000      -0.05370000
C        0.00730000       0.03900000       0.00960000
C        0.88950000      -0.50830000      -1.14860000
N        2.20150000      -0.65290000      -0.53260000
C        2.19690000      -0.71020000       0.83290000
O        3.13620000      -0.93920000       1.56160000
C        0.75920000      -0.43360000       1.24700000
C        0.42680000      -0.15770000       2.64470000
O        0.17910000      -1.44640000       2.07940000
H        0.86770000       2.04280000      -0.04380000
H       -0.63260000       1.87550000      -0.96960000
H       -0.68660000       1.95350000       0.79730000
H       -0.98450000      -0.41880000      -0.01140000
H        0.51320000      -1.46950000      -1.52280000
H        0.92760000       0.19010000      -1.99080000
H        3.02540000      -0.91960000      -1.04830000
H        1.23660000      -0.11920000       3.37060000
H       -0.46090000       0.42840000       2.87860000
