19
Properties=species:S:1:pos:R:3 gdb_2464=T pbc="F F F"
C        0.01720000       1.55980000       0.01310000
C        0.07000000       0.03350000       0.00750000
C        0.83840000      -0.58500000      -1.18900000
C        1.29280000      -1.96370000      -0.70710000
C        2.55770000      -2.03110000       0.11040000
C        1.22350000      -1.97160000       0.80980000
C        0.72630000      -0.59780000       1.26260000
H        1.02620000       1.98670000       0.06150000
H       -0.46370000       1.94720000      -0.89170000
H       -0.54450000       1.93800000       0.87420000
H       -0.95820000      -0.35030000      -0.04150000
H        0.20660000      -0.65180000      -2.08000000
H        1.69720000       0.04380000      -1.45970000
H        1.00840000      -2.83800000      -1.28190000
H        3.09950000      -2.97130000       0.13030000
H        3.19510000      -1.15100000       0.14420000
H        0.88820000      -2.85180000       1.34710000
H        1.55650000       0.02760000       1.61720000
H        0.01590000      -0.67370000       2.09150000
