20
Properties=species:S:1:pos:R:3 gdb_22595=T pbc="F F F"
C       -0.16680000       1.53650000      -0.02470000
C        0.03760000       0.02780000      -0.00330000
C        1.24000000      -0.64860000      -0.76710000
C        2.17500000      -0.14330000       0.38500000
C        0.89390000      -0.67140000       1.13500000
C        0.62410000      -0.70860000       2.61200000
C        0.97970000      -1.82570000       0.15370000
N        0.87300000      -3.07910000       0.21320000
O        1.05970000      -3.66830000      -1.06840000
H        0.75040000       2.11160000       0.12000000
H       -0.60000000       1.84240000      -0.98300000
H       -0.87140000       1.83280000       0.76040000
H       -0.91940000      -0.47400000      -0.17990000
H        1.43620000      -0.65680000      -1.83600000
H        3.09630000      -0.70630000       0.54750000
H        2.35680000       0.93090000       0.43020000
H        0.60180000       0.30190000       3.03320000
H       -0.33910000      -1.18570000       2.81990000
H        1.39870000      -1.27750000       3.13610000
H        0.95490000      -4.60400000      -0.86720000
