20
Properties=species:S:1:pos:R:3 gdb_98757=T pbc="F F F"
C       -0.10010000       1.51900000       0.56600000
C       -0.51630000       0.05810000       0.72040000
C       -1.64880000      -0.35090000      -0.20950000
O       -2.26990000       0.45590000      -0.86310000
C       -1.95330000      -1.83750000      -0.33270000
C       -1.92180000      -2.81730000       0.90540000
C       -3.38610000      -3.15380000       0.60400000
N       -4.11740000      -1.86910000       0.71040000
C       -3.42040000      -2.21660000      -0.55120000
H        0.68510000       1.77770000       1.28190000
H        0.27430000       1.71540000      -0.44260000
H       -0.95400000       2.18060000       0.72850000
H        0.32940000      -0.62560000       0.56230000
H       -0.85520000      -0.14420000       1.74600000
H       -1.31100000      -2.23220000      -1.12900000
H       -1.23620000      -3.65340000       0.75480000
H       -1.74770000      -2.37250000       1.88770000
H       -3.89180000      -4.09950000       0.75200000
H       -5.10730000      -2.06620000       0.56670000
H       -3.95850000      -2.26870000      -1.48820000
