14
Properties=species:S:1:pos:R:3 gdb_56494=T pbc="F F F"
N        0.02920000       1.50480000       0.02020000
C        0.03050000       0.05050000      -0.02150000
C        0.69170000      -0.49780000      -1.22410000
N        1.22660000      -0.84870000      -2.18690000
C        0.71440000      -0.50690000       1.27710000
C        0.02930000      -0.04130000       2.48050000
C       -0.53700000       0.31880000       3.47440000
C        0.76940000      -1.97720000       1.24830000
N        0.80220000      -3.13090000       1.22320000
H        0.95440000       1.87050000      -0.18610000
H       -0.60000000       1.87540000      -0.68400000
H       -1.00760000      -0.29480000      -0.01360000
H        1.75000000      -0.13970000       1.28030000
H       -1.03510000       0.64330000       4.35510000
