18
Properties=species:S:1:pos:R:3 gdb_30118=T pbc="F F F"
C        0.31340000       1.52830000      -0.49850000
N        0.04680000       0.14780000      -0.10350000
C        1.19060000      -0.74050000       0.02330000
C        0.45650000      -0.30260000       1.24530000
C        1.11160000       0.58510000       2.22490000
N        2.25010000       1.23950000       2.09100000
C        2.41910000       1.94400000       3.25900000
C        1.37790000       1.71270000       4.11730000
N        0.54710000       0.84500000       3.44430000
H        1.25170000       1.93480000      -0.10030000
H        0.34460000       1.56600000      -1.59190000
H       -0.51430000       2.16130000      -0.16190000
H        1.05760000      -1.75140000      -0.35450000
H        2.18570000      -0.31870000      -0.10400000
H       -0.26540000      -0.98520000       1.69160000
H        3.28390000       2.57020000       3.41710000
H        1.15720000       2.06050000       5.11240000
H       -0.32490000       0.47380000       3.78280000
