25
Properties=species:S:1:pos:R:3 gdb_77894=T pbc="F F F"
C        0.36910000       1.93810000      -0.21500000
C        0.44170000       0.42680000      -0.08930000
C        1.57960000      -0.50620000      -0.41680000
C        2.96200000      -0.06420000       0.08770000
C        3.70420000       1.10020000      -0.56510000
C        2.37500000       0.02830000       1.54920000
C        2.51500000       1.28350000       2.40800000
C        1.00070000      -0.43160000       1.01660000
C        0.14980000      -1.42570000       1.76100000
H        1.26620000       2.45380000       0.12250000
H        0.20210000       2.22230000      -1.26050000
H       -0.47230000       2.32830000       0.36960000
H       -0.49050000      -0.02040000      -0.43980000
H        1.44210000      -1.29780000      -1.14750000
H        3.63000000      -0.93190000       0.05300000
H        3.13650000       2.03240000      -0.56560000
H        4.65440000       1.29050000      -0.05290000
H        3.93760000       0.86150000      -1.60900000
H        2.79620000      -0.80320000       2.12680000
H        2.15230000       2.18900000       1.91850000
H        1.95210000       1.17050000       3.34170000
H        3.56370000       1.45120000       2.67920000
H       -0.33460000      -0.96630000       2.63230000
H       -0.64390000      -1.82970000       1.12370000
H        0.74740000      -2.26950000       2.12720000
