20
Properties=species:S:1:pos:R:3 gdb_120347=T pbc="F F F"
C        0.00140000       1.40120000      -0.02120000
O        0.04050000      -0.00460000      -0.02170000
C        0.63000000      -0.53750000       1.14750000
C        0.66010000      -2.06050000       1.01640000
C        1.51300000      -2.55520000      -0.14050000
C        2.43580000      -3.43850000       0.24600000
C        2.38550000      -3.63670000       1.72490000
N        2.69960000      -2.38350000       2.47480000
C        1.28960000      -2.76230000       2.22080000
H        1.01000000       1.83940000       0.04310000
H       -0.46230000       1.71800000      -0.95890000
H       -0.59430000       1.79390000       0.81890000
H        1.65340000      -0.15820000       1.28210000
H        0.04540000      -0.24410000       2.03700000
H       -0.37840000      -2.39730000       0.88980000
H        1.37450000      -2.17530000      -1.14510000
H        3.15970000      -3.92500000      -0.39670000
H        2.63160000      -4.58860000       2.18320000
H        2.91980000      -2.63060000       3.43870000
H        0.66850000      -3.04110000       3.06530000
