15
Properties=species:S:1:pos:R:3 gdb_97838=T pbc="F F F"
O        0.14160000       1.44110000       0.45640000
C        0.09840000       0.06680000       0.10710000
C       -1.25640000      -0.47370000       0.00740000
C       -2.38800000      -0.87520000      -0.10010000
C       -3.73060000      -1.39580000      -0.20570000
O       -4.22130000      -1.56920000      -1.56530000
C       -4.43830000      -2.98690000      -1.43040000
C       -3.92240000      -2.93120000       0.00850000
O       -3.74160000      -3.69520000       0.89890000
H       -0.40390000       1.91960000      -0.17680000
H        0.63100000      -0.12940000      -0.83720000
H        0.64940000      -0.46020000       0.89410000
H       -4.43550000      -0.80220000       0.39360000
H       -5.49170000      -3.27630000      -1.53410000
H       -3.82660000      -3.58190000      -2.12040000
