16
Properties=species:S:1:pos:R:3 gdb_125356=T pbc="F F F"
C        0.00950000       1.51900000      -0.04260000
C       -0.02970000       0.02820000      -0.06770000
C       -0.08270000      -0.88550000      -1.09580000
N       -0.11440000      -2.14470000      -0.58020000
N       -0.08480000      -2.07180000       0.71560000
N       -0.03860000      -0.75610000       1.04650000
C        0.05700000      -0.36990000       2.43480000
C        1.48580000      -0.00620000       2.83710000
O        1.74790000       0.83250000       3.65490000
H        0.90160000       1.90180000       0.46530000
H        0.01590000       1.90470000      -1.06390000
H       -0.86410000       1.94030000       0.46810000
H       -0.10340000      -0.70580000      -2.15890000
H       -0.61020000       0.46420000       2.66520000
H       -0.25210000      -1.24050000       3.02350000
H        2.26750000      -0.59960000       2.31420000
