17
Properties=species:S:1:pos:R:3 gdb_33469=T pbc="F F F"
N       -0.30400000      -1.11700000       0.69460000
C       -0.19240000       0.00130000       0.41950000
C       -0.06310000       1.39360000       0.04290000
C        0.75050000       2.25190000       0.96120000
N        1.28300000       1.86290000      -0.34520000
C       -1.23680000       1.93430000      -0.74890000
C       -1.12580000       3.34910000      -1.36120000
O       -1.40920000       2.84410000      -2.68020000
C       -1.37650000       1.47950000      -2.22140000
H        0.48560000       3.30140000       1.05440000
H        1.15660000       1.79520000       1.85840000
H        1.96540000       1.11520000      -0.25190000
H       -2.15210000       1.78820000      -0.17080000
H       -1.87490000       4.07600000      -1.02800000
H       -0.12530000       3.79270000      -1.30330000
H       -0.50590000       0.93580000      -2.61000000
H       -2.28990000       0.93270000      -2.47880000
