15
Properties=species:S:1:pos:R:3 gdb_28118=T pbc="F F F"
C       -0.01500000       1.44450000       0.06450000
C       -0.00440000      -0.03450000      -0.06120000
N       -0.09860000      -0.74520000      -1.15230000
C       -0.03290000      -2.03270000      -0.67540000
C        0.09860000      -2.05760000       0.68800000
O        0.11930000      -0.75500000       1.10920000
C        0.16330000      -3.39380000       1.14100000
C        0.06360000      -4.14830000      -0.01850000
N       -0.05650000      -3.32280000      -1.12650000
H        0.91100000       1.80920000       0.52210000
H       -0.11830000       1.88310000      -0.92820000
H       -0.84610000       1.78200000       0.69310000
H        0.26520000      -3.78110000       2.14110000
H        0.06840000      -5.21940000      -0.13860000
H       -0.14050000      -3.63060000      -2.07880000
