19
Properties=species:S:1:pos:R:3 gdb_126727=T pbc="F F F"
C        0.30020000       1.50260000       0.12770000
C       -0.12630000       0.06020000      -0.15320000
N        0.60540000      -0.54030000      -1.25390000
C        1.70350000      -1.34430000      -1.18320000
C        2.09260000      -1.57120000      -2.48630000
O        3.14860000      -2.34330000      -2.87440000
C        1.17250000      -0.85690000      -3.28760000
C        1.12480000      -0.76920000      -4.77970000
N        0.27660000      -0.23090000      -2.51810000
H        1.35630000       1.55150000       0.40920000
H        0.15090000       2.11830000      -0.76260000
H       -0.29490000       1.92080000       0.94550000
H        0.02890000      -0.57150000       0.72650000
H       -1.18830000       0.02050000      -0.41070000
H        2.10790000      -1.69150000      -0.24690000
H        3.19000000      -2.33970000      -3.83530000
H        0.98150000      -1.75220000      -5.24640000
H        0.29150000      -0.13160000      -5.08210000
H        2.04490000      -0.33960000      -5.19610000
