19
Properties=species:S:1:pos:R:3 gdb_70083=T pbc="F F F"
O       -0.07530000       1.34940000       0.06640000
C       -0.01410000      -0.05490000       0.06950000
C       -0.21260000      -0.66370000       1.41770000
C        1.17350000      -0.69720000       0.76450000
C        1.72760000      -1.94350000       0.19130000
C        1.28570000      -2.49100000      -0.94700000
C        0.18600000      -1.91750000      -1.75600000
C       -1.25030000      -2.00640000      -1.26310000
C       -0.52120000      -0.69160000      -1.20490000
H        0.57390000       1.66860000      -0.57040000
H       -0.34650000       0.03320000       2.23700000
H       -0.75690000      -1.59630000       1.50730000
H        1.89060000      -0.01410000       1.21110000
H        2.54020000      -2.41910000       0.73500000
H        1.74420000      -3.40440000      -1.31700000
H        0.31790000      -1.98150000      -2.83250000
H       -2.03380000      -2.11180000      -2.00560000
H       -1.42990000      -2.54930000      -0.34240000
H       -0.83860000       0.05500000      -1.92480000
