19
Properties=species:S:1:pos:R:3 gdb_102879=T pbc="F F F"
C       -0.39960000       0.11940000      -1.08730000
O        0.70300000      -0.40750000      -0.34550000
C        0.41970000      -0.87410000       0.91350000
N       -0.49640000      -1.92790000       0.93780000
C       -0.29670000      -3.06840000       0.03360000
C        0.73130000      -4.01280000       0.47720000
C        1.56600000      -4.78010000       0.87570000
N        0.91340000      -0.41580000       1.98320000
C        1.71920000       0.78880000       1.95650000
H       -0.82110000       0.99710000      -0.58340000
H        0.00080000       0.41690000      -2.05820000
H       -1.19270000      -0.62180000      -1.22680000
H       -0.63570000      -2.21630000       1.89870000
H       -1.25360000      -3.59150000      -0.07520000
H       -0.03410000      -2.67730000      -0.95260000
H        2.31080000      -5.45430000       1.21990000
H        2.72570000       0.55700000       2.32510000
H        1.81330000       1.24640000       0.96500000
H        1.29380000       1.52420000       2.64990000
