17
Properties=species:S:1:pos:R:3 gdb_76460=T pbc="F F F"
C       -0.23260000       1.40900000      -0.03330000
C        0.07790000      -0.06800000       0.06430000
C        1.37450000      -0.62570000      -0.32210000
O        2.35170000       0.25640000      -0.74420000
C        0.96950000      -0.65290000       1.20470000
C        1.68730000       0.24500000       2.13640000
O        1.91380000      -0.03120000       3.29330000
C        0.56570000      -1.98640000       1.71230000
O       -0.04110000      -2.79480000       1.04200000
H        0.66570000       2.02530000       0.01920000
H       -0.71300000       1.61130000      -0.99600000
H       -0.92180000       1.71960000       0.75700000
H       -0.75850000      -0.73920000      -0.11370000
H        1.39270000      -1.62360000      -0.75740000
H        3.21130000      -0.17140000      -0.66830000
H        2.03140000       1.20570000       1.70460000
H        0.87410000      -2.20000000       2.75200000
