17
Properties=species:S:1:pos:R:3 gdb_96821=T pbc="F F F"
C        0.19720000       1.37300000      -0.21830000
N        0.32320000      -0.07770000      -0.16550000
C        0.58470000      -0.63460000       0.92060000
O        0.79510000      -0.09920000       2.18780000
C        0.84200000      -1.43280000       2.80050000
C       -0.26820000      -1.67180000       3.69820000
C       -1.19580000      -1.88250000       4.43250000
C        0.75090000      -2.08150000       1.37510000
N       -0.26030000      -3.08100000       1.15310000
H        1.02420000       1.78520000      -0.80760000
H       -0.72850000       1.63060000      -0.74300000
H        0.19530000       1.85580000       0.76570000
H        1.79930000      -1.57380000       3.30950000
H       -2.00840000      -2.06560000       5.09190000
H        1.72080000      -2.48360000       1.06840000
H       -1.18350000      -2.70010000       1.33730000
H       -0.24590000      -3.37420000       0.18160000
