19
Properties=species:S:1:pos:R:3 gdb_12225=T pbc="F F F"
C       -0.53720000       1.43950000      -0.06190000
C        0.08560000       0.05140000      -0.02330000
C        1.40900000      -0.13890000      -0.82490000
N        2.07020000      -0.52070000       0.42160000
C        3.24920000      -1.15640000       0.59590000
O        4.06250000      -1.35660000      -0.28450000
C        0.87150000      -0.38970000       1.26800000
C        0.99880000       0.58380000       2.43260000
H        0.19300000       2.22260000       0.16460000
H       -0.93930000       1.64450000      -1.05970000
H       -1.36270000       1.53070000       0.65170000
H       -0.66520000      -0.69420000      -0.29510000
H        1.40920000      -0.93370000      -1.57740000
H        1.81670000       0.77170000      -1.27830000
H        3.40010000      -1.47260000       1.64940000
H        0.52630000      -1.36100000       1.64540000
H        1.37400000       1.55700000       2.10560000
H        0.02850000       0.72860000       2.91920000
H        1.69170000       0.19230000       3.18410000
