16
Properties=species:S:1:pos:R:3 gdb_17615=T pbc="F F F"
C       -1.29390000       1.33010000       0.30080000
C       -0.18550000       0.29290000       0.06570000
O        0.70480000       0.28920000       1.15050000
C       -0.69670000      -1.13170000      -0.16100000
O       -0.34100000      -2.02430000       0.58210000
C       -1.56120000      -1.46950000      -1.34170000
C       -2.93940000      -0.96090000      -1.49310000
O       -1.87610000      -0.44790000      -2.28620000
H       -0.81810000       2.27510000       0.57350000
H       -1.88830000       1.48770000      -0.60110000
H       -1.94200000       1.02990000       1.12990000
H        0.34550000       0.56890000      -0.86200000
H        0.73420000      -0.62930000       1.46230000
H       -1.33680000      -2.44900000      -1.76220000
H       -3.66260000      -1.58130000      -2.01890000
H       -3.35140000      -0.27840000      -0.75430000
