22
Properties=species:S:1:pos:R:3 gdb_110940=T pbc="F F F"
C       -0.09200000       1.51780000      -0.35250000
C        0.00420000       0.15210000       0.32260000
N       -1.25070000      -0.57760000       0.14040000
C       -1.57290000      -1.34640000      -1.03430000
C       -0.37020000      -2.12720000      -1.59720000
C       -0.26740000      -2.85810000      -0.21130000
O        0.92460000      -2.80520000       0.52930000
C        1.92690000      -3.66480000       0.03270000
C       -1.41490000      -1.99770000       0.32910000
H        0.81640000       2.10150000      -0.17400000
H       -0.21630000       1.41170000      -1.43570000
H       -0.94950000       2.07910000       0.02970000
H        0.88360000      -0.39320000      -0.03930000
H        0.14050000       0.27280000       1.40310000
H       -2.48520000      -1.12090000      -1.57570000
H       -0.63540000      -2.80390000      -2.41220000
H        0.49340000      -1.52880000      -1.89980000
H       -0.59700000      -3.90340000      -0.31850000
H        1.59430000      -4.71490000       0.03220000
H        2.22810000      -3.40010000      -0.99200000
H        2.79410000      -3.56930000       0.69030000
H       -2.16400000      -2.34180000       1.03480000
