18
Properties=species:S:1:pos:R:3 gdb_40859=T pbc="F F F"
C        0.02180000       1.50610000      -0.16180000
C        1.53340000       1.39170000       0.03120000
C        1.40030000       0.16030000       0.83980000
C       -0.01340000      -0.01340000       0.15880000
C        0.77990000      -0.61090000      -1.00800000
C        0.90690000      -2.13080000      -1.20330000
O        0.42200000      -2.03030000      -2.55950000
C        0.36700000      -0.59060000      -2.48710000
N        2.01630000       0.07270000      -0.52030000
H       -0.42640000       2.10090000       0.63790000
H       -0.37150000       1.83240000      -1.13100000
H        2.27640000       2.17560000       0.09180000
H        1.86770000      -0.19700000       1.74700000
H       -0.90530000      -0.48960000       0.56200000
H        1.93890000      -2.49900000      -1.15620000
H        0.26100000      -2.76210000      -0.58010000
H       -0.63660000      -0.20240000      -2.70580000
H        1.09570000      -0.11150000      -3.15340000
