21
Properties=species:S:1:pos:R:3 gdb_112592=T pbc="F F F"
C       -0.31540000       1.29160000      -0.00190000
O        0.31240000       0.04140000      -0.17820000
C        0.82570000      -0.49390000       1.01080000
C       -0.15800000      -1.14500000       2.02320000
C        0.85160000      -2.34160000       2.17100000
C        0.25050000      -3.75050000       2.16460000
C        1.51770000      -1.85510000       0.83290000
C        1.73810000      -2.15960000       3.31340000
C        2.46820000      -2.01660000       4.25880000
H        0.37900000       2.04010000       0.41140000
H       -0.65340000       1.62840000      -0.98480000
H       -1.18650000       1.22590000       0.66740000
H        1.47950000       0.23600000       1.51150000
H       -0.41880000      -0.59990000       2.93140000
H       -1.06670000      -1.47500000       1.51100000
H       -0.41300000      -3.87630000       1.30340000
H        1.03730000      -4.50920000       2.10850000
H       -0.32750000      -3.93180000       3.07610000
H        1.08710000      -2.38260000      -0.02260000
H        2.60630000      -1.87840000       0.77260000
H        3.11340000      -1.89080000       5.09270000
