15
Properties=species:S:1:pos:R:3 gdb_104559=T pbc="F F F"
O        0.08320000       1.48460000      -0.07250000
C        0.11620000       0.10580000      -0.33150000
C       -1.24090000      -0.54800000      -0.06620000
C       -1.25140000      -2.08970000       0.11730000
C       -1.56530000      -1.76160000       1.56070000
N       -1.74750000      -2.43030000       2.59810000
O       -1.58580000      -0.38410000       1.35630000
C       -2.29850000      -0.00380000      -0.91780000
N       -3.12750000       0.39360000      -1.61690000
H       -0.17310000       1.60050000       0.85040000
H        0.38670000      -0.02170000      -1.38430000
H        0.86250000      -0.42060000       0.28340000
H       -2.04200000      -2.61980000      -0.41300000
H       -0.29230000      -2.58130000      -0.05350000
H       -1.94760000      -1.84270000       3.40840000
