21
Properties=species:S:1:pos:R:3 gdb_99997=T pbc="F F F"
C       -0.06530000       1.56350000       0.11260000
C       -0.00160000       0.02830000       0.05840000
C        0.75810000      -0.52910000       1.27460000
C       -1.43560000      -0.56060000       0.05600000
O       -2.17780000      -0.22860000       1.22030000
C        0.66130000      -0.43340000      -1.27530000
O       -0.06650000       0.00780000      -2.39190000
C        2.10320000       0.01630000      -1.40530000
O        2.47220000       0.68330000      -2.34380000
H        0.93490000       2.00810000       0.15070000
H       -0.57720000       1.96160000      -0.76800000
H       -0.59720000       1.89240000       1.01050000
H        0.14180000      -0.40350000       2.16820000
H        0.96540000      -1.60020000       1.16320000
H        1.70820000      -0.01440000       1.44630000
H       -1.95690000      -0.24750000      -0.85550000
H       -1.37130000      -1.65540000       0.04380000
H       -2.53190000       0.65770000       1.10620000
H        0.69120000      -1.54010000      -1.25610000
H        0.56980000       0.49290000      -2.94200000
H        2.80640000      -0.30600000      -0.61480000
