18
Properties=species:S:1:pos:R:3 gdb_22863=T pbc="F F F"
C        0.08940000       1.46030000       0.08000000
C        0.01270000      -0.02920000       0.00030000
C       -0.05290000      -0.79630000      -1.09110000
C       -0.09680000      -2.27480000      -0.79210000
C        0.01190000      -2.28510000       0.71470000
N        0.16580000      -3.26170000       1.51100000
O        0.21610000      -4.48750000       0.83040000
C       -0.00880000      -0.86440000       1.26390000
O        1.10630000      -0.55680000       2.08990000
H        0.98270000       1.76590000       0.63560000
H        0.12100000       1.91590000      -0.91310000
H       -0.77220000       1.87230000       0.62110000
H       -0.07600000      -0.41390000      -2.10620000
H       -1.02400000      -2.76040000      -1.12660000
H        0.71930000      -2.84500000      -1.25450000
H        0.34050000      -5.11850000       1.54750000
H       -0.94270000      -0.68730000       1.82750000
H        1.21170000      -1.30150000       2.69320000
