15
Properties=species:S:1:pos:R:3 gdb_16635=T pbc="F F F"
N        0.17620000       1.38980000       0.40840000
C       -0.06170000       0.00110000       0.03310000
C       -1.50930000      -0.40100000      -0.12700000
C       -2.27730000       0.14930000      -1.31990000
C       -1.57570000      -1.17090000      -1.41570000
O       -0.30970000      -1.14230000      -2.05670000
C        0.57390000      -0.41110000      -1.31610000
O        1.66820000      -0.12920000      -1.70840000
H        1.16730000       1.58750000       0.28530000
H       -0.31320000       2.00280000      -0.23870000
H        0.40330000      -0.63380000       0.79940000
H       -2.06740000      -0.71550000       0.74510000
H       -3.35880000       0.14560000      -1.24540000
H       -1.86640000       0.97380000      -1.89460000
H       -2.09030000      -2.11180000      -1.55650000
