18
Properties=species:S:1:pos:R:3 gdb_87354=T pbc="F F F"
C       -0.00660000       1.38330000      -0.18520000
C        0.08550000      -0.09910000       0.07250000
N        1.39230000      -0.73370000       0.00170000
C        0.71820000      -0.69730000       1.31380000
C        1.35200000       0.13410000       2.41470000
C        2.66040000      -0.47060000       2.89490000
O        2.93090000      -0.67550000       4.04980000
C        0.08590000      -1.98460000       1.74190000
O       -0.13240000      -2.89850000       0.98110000
H        0.89630000       1.90750000       0.13400000
H       -0.12460000       1.56040000      -1.25950000
H       -0.87220000       1.81940000       0.32390000
H       -0.75180000      -0.68290000      -0.30680000
H        1.29060000      -1.68170000      -0.36380000
H        1.57810000       1.13600000       2.03460000
H        0.67900000       0.24050000       3.27140000
H        3.37160000      -0.71610000       2.07670000
H       -0.17840000      -2.05340000       2.81820000
