18
Properties=species:S:1:pos:R:3 gdb_86920=T pbc="F F F"
C       -0.17980000       1.58540000      -0.02050000
C       -0.00610000       0.07700000      -0.13810000
C        0.99610000      -0.46820000      -1.20460000
N        1.78100000      -1.02120000      -0.09290000
C        2.95270000      -1.85150000      -0.04020000
C        4.22240000      -1.10340000      -0.43260000
O        5.13390000      -1.59490000      -1.04120000
C        0.93110000      -0.58650000       0.90090000
O        0.97060000      -0.71180000       2.09660000
H        0.78930000       2.09510000      -0.00420000
H       -0.76000000       1.98390000      -0.85860000
H       -0.70460000       1.83470000       0.90620000
H       -0.97540000      -0.42820000      -0.17790000
H        0.59640000      -1.22830000      -1.88460000
H        1.51940000       0.30050000      -1.78350000
H        3.06210000      -2.16880000       1.00630000
H        2.86010000      -2.74870000      -0.66330000
H        4.23820000      -0.04190000      -0.09400000
