21
Properties=species:S:1:pos:R:3 gdb_118822=T pbc="F F F"
C        0.01610000       1.59880000      -0.12980000
C        0.17770000       0.07660000      -0.11940000
C        0.49900000      -0.47690000       1.27670000
C        0.67310000      -1.98450000       1.29000000
O       -0.46910000      -2.69890000       0.89190000
C        1.99690000      -2.61660000       1.00460000
C        1.40610000      -2.70160000       2.41710000
C        2.07070000      -1.97970000       3.52440000
O        2.07260000      -2.34950000       4.67300000
H        0.93430000       2.09720000       0.20010000
H       -0.22090000       1.96660000      -1.13270000
H       -0.79040000       1.91460000       0.54080000
H       -0.74730000      -0.38570000      -0.48620000
H        0.97290000      -0.21530000      -0.81810000
H        1.40860000       0.00450000       1.65300000
H       -0.30940000      -0.21240000       1.96980000
H       -0.53760000      -2.63830000      -0.06710000
H        2.01720000      -3.54060000       0.43880000
H        2.86030000      -1.97160000       0.87050000
H        0.96140000      -3.64770000       2.70360000
H        2.60930000      -1.05030000       3.22530000
