23
Properties=species:S:1:pos:R:3 gdb_119354=T pbc="F F F"
C       -0.03580000       1.54660000       0.02580000
C        0.00040000       0.01630000       0.00300000
C       -1.39880000      -0.61410000       0.00570000
C       -1.39060000      -2.12140000      -0.01040000
C       -0.76140000      -3.08360000       1.05300000
C       -1.39580000      -3.99310000      -0.01880000
O       -1.35520000      -5.37350000       0.04920000
C       -2.64090000      -3.05490000      -0.00250000
C       -0.78040000      -3.05750000      -1.10360000
H        0.97320000       1.97070000       0.02200000
H       -0.56710000       1.94340000      -0.84660000
H       -0.54940000       1.91740000       0.92000000
H        0.54870000      -0.32590000      -0.88370000
H        0.56330000      -0.35140000       0.87010000
H       -1.95060000      -0.27030000       0.89160000
H       -1.96350000      -0.25050000      -0.86410000
H        0.32970000      -3.09910000       1.12140000
H       -1.23020000      -3.09260000       2.04110000
H       -1.80810000      -5.72880000      -0.72300000
H       -3.24510000      -3.05680000       0.90930000
H       -3.26420000      -3.03980000      -0.90260000
H       -1.27010000      -3.04400000      -2.08290000
H        0.30900000      -3.06770000      -1.19570000
