20
Properties=species:S:1:pos:R:3 gdb_83153=T pbc="F F F"
C       -0.35420000       1.46720000       0.07620000
C       -0.03960000      -0.01080000       0.01160000
C        0.63130000      -0.63680000      -1.16440000
C        1.09010000       0.18800000      -2.36510000
C        2.26530000       1.11700000      -2.08350000
O        2.40740000       2.17400000      -2.65290000
C        3.22130000       0.59250000      -1.03290000
C        2.46050000       0.35980000       0.28650000
N        1.32160000      -0.55450000       0.13410000
H        0.27820000       2.08150000      -0.56930000
H       -1.39210000       1.63180000      -0.23180000
H       -0.25480000       1.84450000       1.10060000
H       -0.77000000      -0.62090000       0.54310000
H        0.33990000      -1.65400000      -1.42100000
H        1.44510000      -0.50570000      -3.13990000
H        0.27900000       0.76760000      -2.81600000
H        3.63050000      -0.36720000      -1.37500000
H        4.04340000       1.29830000      -0.89790000
H        3.14540000      -0.07820000       1.02080000
H        2.14350000       1.32740000       0.69500000
