17
Properties=species:S:1:pos:R:3 gdb_41623=T pbc="F F F"
C        0.06600000       1.56810000      -0.12370000
N        1.54200000       1.24000000      -0.12190000
C        1.22140000      -0.00750000       0.40540000
N        1.62740000      -0.79590000       1.31580000
C        0.41990000      -1.52000000       1.75260000
C       -0.11590000      -0.91980000       3.06680000
O       -1.03430000      -0.05700000       2.35120000
C       -0.83050000      -0.77220000       1.11770000
C       -0.22010000       0.03070000      -0.02270000
H       -0.24940000       2.10880000       0.77230000
H       -0.26750000       2.07430000      -1.03080000
H        2.20500000       1.82890000       0.37030000
H        0.51390000      -2.60620000       1.69180000
H       -0.65400000      -1.63310000       3.70520000
H        0.60740000      -0.35320000       3.66050000
H       -1.70600000      -1.37110000       0.84570000
H       -0.42720000      -0.41110000      -0.99990000
