15
Properties=species:S:1:pos:R:3 gdb_1255=T pbc="F F F"
C        0.12060000       1.73120000       0.60830000
N       -0.01250000       0.36020000       1.05710000
C        0.15130000      -0.55260000       0.19640000
N        0.03870000      -1.88930000       0.55280000
C        0.20390000      -2.94080000      -0.33310000
C        0.03100000      -4.31080000       0.29670000
O        0.46340000      -2.76610000      -1.50470000
H        0.90930000       2.23070000       1.18310000
H        0.35600000       1.82870000      -0.46310000
H       -0.80960000       2.27540000       0.80950000
H        0.38530000      -0.41300000      -0.86280000
H       -0.17710000      -2.07090000       1.52230000
H       -0.97040000      -4.41730000       0.72720000
H        0.17760000      -5.07000000      -0.47030000
H        0.75700000      -4.46280000       1.10250000
