19
Properties=species:S:1:pos:R:3 gdb_33133=T pbc="F F F"
C        0.16140000       1.52700000      -0.21290000
C       -0.11900000       0.10830000      -0.67410000
O        1.08480000      -0.65400000      -0.52440000
C        0.98550000      -1.95150000      -0.95460000
C        0.78400000      -3.07160000      -0.17810000
N        0.80480000      -4.15220000      -1.01750000
C        1.02020000      -3.74200000      -2.31940000
C        1.13550000      -2.36920000      -2.31170000
N        1.30000000      -1.47800000      -3.39030000
H        0.48930000       1.53510000       0.83060000
H        0.94810000       1.98330000      -0.82110000
H       -0.74130000       2.13940000      -0.29890000
H       -0.91710000      -0.35140000      -0.07340000
H       -0.44220000       0.08930000      -1.72390000
H        0.64930000      -3.17240000       0.88580000
H        0.70760000      -5.10750000      -0.72810000
H        1.06950000      -4.45160000      -3.12900000
H        1.77820000      -1.90250000      -4.17510000
H        1.82300000      -0.66130000      -3.09420000
