20
Properties=species:S:1:pos:R:3 gdb_112265=T pbc="F F F"
C       -0.12220000       1.65800000      -0.18970000
C       -0.04490000       0.21250000       0.31280000
C       -1.33190000      -0.55030000       0.06870000
O       -1.59080000      -0.73860000      -1.37910000
C       -1.59750000      -2.10120000      -1.23430000
N       -1.66920000      -3.03170000      -2.07810000
C       -1.39130000      -2.09170000       0.26030000
C       -0.18560000      -2.92650000       0.70450000
O       -0.43210000      -4.29070000       0.44290000
H        0.82090000       2.18360000      -0.01640000
H       -0.33360000       1.68170000      -1.26240000
H       -0.91530000       2.21370000       0.32220000
H        0.78620000      -0.30780000      -0.17500000
H        0.15850000       0.19550000       1.39150000
H       -2.18480000      -0.02370000       0.50920000
H       -1.74570000      -2.68440000      -3.03490000
H       -2.27510000      -2.42490000       0.81010000
H        0.72720000      -2.57610000       0.19880000
H       -0.02260000      -2.83080000       1.78320000
H       -0.68990000      -4.35710000      -0.48910000
