19
Properties=species:S:1:pos:R:3 gdb_126177=T pbc="F F F"
C       -0.04780000       1.57510000       0.09360000
C       -0.11310000       0.06270000       0.31020000
C       -1.43480000      -0.54630000      -0.19760000
O       -1.61610000      -0.26260000      -1.57390000
C       -1.49080000      -2.03040000       0.06130000
N       -1.43100000      -2.86750000      -0.97070000
N       -1.47610000      -4.09770000      -0.42470000
C       -1.56490000      -4.06630000       0.92600000
C       -1.57640000      -2.73600000       1.28480000
H        0.91430000       1.98040000       0.42160000
H       -0.18100000       1.81220000      -0.96470000
H       -0.83630000       2.08980000       0.65490000
H        0.71160000      -0.43330000      -0.21630000
H        0.00070000      -0.17700000       1.37510000
H       -2.26110000      -0.06560000       0.34990000
H       -1.50200000      -1.09770000      -2.04620000
H       -1.45530000      -4.90280000      -1.02680000
H       -1.61500000      -4.97090000       1.51140000
H       -1.64200000      -2.33240000       2.28200000
