14
Properties=species:S:1:pos:R:3 gdb_19657=T pbc="F F F"
O       -0.04570000      -0.00970000      -0.09760000
C       -0.01860000       1.17570000       0.04470000
C       -1.03910000       2.33490000       0.02130000
O       -0.78530000       2.93680000       1.30270000
C        0.57790000       3.34720000       1.05830000
C        0.40970000       4.36890000      -0.08620000
C        0.01890000       3.10780000      -0.87570000
C        1.04760000       2.26100000       0.01420000
H       -2.10050000       2.24180000      -0.19100000
H        1.09480000       3.54620000       1.99440000
H       -0.32240000       5.16640000       0.05870000
H        1.36480000       4.76880000      -0.43410000
H       -0.05270000       3.02490000      -1.95720000
H        2.10090000       2.12050000      -0.20830000
