12
Properties=species:S:1:pos:R:3 gdb_4654=T pbc="F F F"
N        0.00610000       1.36270000       0.16530000
C       -0.02870000      -0.01820000       0.05050000
N       -1.10380000      -0.76510000       0.06710000
C       -0.63210000      -2.07030000       0.02330000
C        0.73780000      -2.09380000      -0.03260000
N        1.11650000      -0.76930000      -0.01280000
C       -1.49610000      -3.19620000       0.02460000
N       -2.18370000      -4.12780000       0.02380000
H        0.58850000       1.82560000      -0.52160000
H       -0.93360000       1.73800000       0.14270000
H        1.44700000      -2.90110000      -0.09200000
H        2.06020000      -0.42350000       0.03790000
