18
Properties=species:S:1:pos:R:3 gdb_31736=T pbc="F F F"
C        0.11550000       1.28350000       0.18670000
N       -0.21590000      -0.08860000      -0.15820000
C        0.54040000      -0.75990000      -1.09970000
N        0.71250000      -2.06310000      -1.13580000
C        1.46180000      -2.30060000      -2.27530000
C        1.87200000      -3.68650000      -2.66930000
O        2.24130000      -3.77550000      -4.03820000
C        1.74170000      -1.13240000      -2.92370000
N        1.14820000      -0.13610000      -2.15000000
H        1.16740000       1.42720000       0.47840000
H       -0.10130000       1.95310000      -0.65430000
H       -0.52120000       1.60170000       1.01460000
H       -0.40120000      -0.69080000       0.63100000
H        2.75660000      -4.00840000      -2.10640000
H        1.06300000      -4.38670000      -2.41020000
H        1.49090000      -3.45350000      -4.54930000
H        2.31600000      -0.90620000      -3.80480000
H        1.11050000       0.84290000      -2.37260000
