15
Properties=species:S:1:pos:R:3 gdb_13325=T pbc="F F F"
O       -0.32270000       0.07350000       0.05260000
C       -0.08150000       1.25800000       0.04140000
N        1.17310000       1.81090000      -0.00520000
C        2.37820000       1.11090000      -0.04740000
C        2.61990000      -0.20010000      -0.05230000
C        4.10370000      -0.41670000      -0.10670000
O        4.68740000       0.89130000      -0.13180000
C        3.67640000       1.87870000      -0.09800000
H       -0.86410000       2.04070000       0.06790000
H        1.22180000       2.81840000      -0.00890000
H        1.88560000      -0.98820000      -0.02290000
H        4.48470000      -0.96880000       0.76680000
H        4.41910000      -0.97360000      -1.00290000
H        3.73940000       2.52440000      -0.99090000
H        3.80500000       2.53060000       0.78320000
