19
Properties=species:S:1:pos:R:3 gdb_37878=T pbc="F F F"
C       -0.05540000       1.56610000       0.00060000
C        1.49020000       1.55490000      -0.01830000
C        2.11310000       0.88280000       1.26780000
C        1.00860000       0.47610000       2.25210000
C        0.35550000      -0.61360000       1.37680000
O        1.48770000      -1.45800000       1.10800000
C        2.30420000      -0.48230000       0.47670000
C        1.45080000       0.12750000      -0.64600000
C        0.01040000       0.01150000      -0.01710000
H       -0.59620000       2.06630000       0.80960000
H       -0.43610000       1.94500000      -0.95270000
H        2.04120000       2.39520000      -0.44080000
H        2.98650000       1.36610000       1.70330000
H        1.41610000       0.01670000       3.15660000
H        0.34960000       1.29700000       2.53960000
H       -0.43700000      -1.20290000       1.83740000
H        3.30040000      -0.87530000       0.28250000
H        1.58400000      -0.10720000      -1.70130000
H       -0.75840000      -0.54520000      -0.55330000
