12
Properties=species:S:1:pos:R:3 gdb_24993=T pbc="F F F"
O        0.03410000       0.05440000       0.21710000
C       -0.03500000       1.24000000       0.12630000
N       -1.16420000       2.06730000       0.10930000
C       -0.75100000       3.33790000      -0.28400000
C        0.58270000       3.30550000      -0.31790000
O        1.14800000       4.49170000       0.01550000
C        0.00010000       5.36820000      -0.12730000
O       -1.17790000       4.58660000       0.13140000
O        1.09160000       2.07480000      -0.07720000
H       -2.04980000       1.63480000      -0.10590000
H        0.07330000       6.18350000       0.59070000
H       -0.02700000       5.72220000      -1.16770000
