19
Properties=species:S:1:pos:R:3 gdb_83485=T pbc="F F F"
C       -0.12270000       1.52730000       0.02490000
C        0.05490000       0.01370000       0.03260000
C        1.08870000      -0.59310000      -0.94060000
C        2.41890000      -0.04300000      -0.40930000
N        2.16660000      -0.00050000       1.05660000
C        0.81280000      -0.59320000       1.23350000
C        0.88610000      -2.03930000       0.78910000
N        0.86050000      -3.08040000       1.50100000
O        1.05640000      -1.99940000      -0.58010000
H        0.79730000       2.04370000       0.30640000
H       -0.43440000       1.88000000      -0.96420000
H       -0.90000000       1.82030000       0.73750000
H       -0.90750000      -0.48710000      -0.10880000
H        0.91120000      -0.50570000      -2.01140000
H        3.24340000      -0.70760000      -0.68460000
H        2.63590000       0.95770000      -0.80200000
H        2.85560000      -0.53960000       1.56820000
H        0.41820000      -0.44230000       2.23580000
H        0.98560000      -3.91490000       0.92360000
