21
Properties=species:S:1:pos:R:3 gdb_59310=T pbc="F F F"
C        1.00090000       1.44100000       0.20440000
C        0.40870000       0.02920000       0.08490000
C       -1.10180000       0.03600000       0.36280000
C        0.69050000      -0.54440000      -1.29700000
O        2.13440000      -0.54320000      -1.60880000
C        2.14870000      -1.89600000      -1.81590000
O        3.08230000      -2.58220000      -2.08610000
C        0.65040000      -2.07760000      -1.56400000
C        0.26480000      -3.09090000      -0.49160000
H        2.07500000       1.43450000       0.00560000
H        0.52820000       2.12490000      -0.51070000
H        0.83610000       1.84310000       1.20870000
H        0.90330000      -0.61140000       0.82620000
H       -1.62970000       0.66140000      -0.36660000
H       -1.53600000      -0.96690000       0.32130000
H       -1.30500000       0.44650000       1.35640000
H        0.17100000       0.04310000      -2.06220000
H        0.13460000      -2.31140000      -2.50060000
H        0.72470000      -2.86620000       0.47440000
H       -0.81900000      -3.13850000      -0.35550000
H        0.60940000      -4.08310000      -0.79730000
