15
Properties=species:S:1:pos:R:3 gdb_125329=T pbc="F F F"
C       -0.03700000       1.47760000       0.05780000
C       -0.01320000      -0.01310000      -0.02920000
C        0.22110000      -0.77750000      -1.15190000
N        0.13560000      -2.09430000      -0.70700000
C        0.20580000      -3.43060000      -1.01970000
N       -0.00730000      -4.17770000       0.03220000
N       -0.22320000      -3.30290000       1.06250000
C       -0.14230000      -2.01100000       0.64160000
N       -0.24280000      -0.78910000       1.10220000
H        0.16070000       1.93290000      -0.91620000
H       -1.01060000       1.83120000       0.41320000
H        0.71520000       1.83810000       0.76760000
H        0.43230000      -0.51970000      -2.17440000
H        0.40960000      -3.82070000      -2.00240000
H       -0.41070000      -3.65030000       1.98490000
