18
Properties=species:S:1:pos:R:3 gdb_18147=T pbc="F F F"
C       -0.13380000       1.52230000       0.01390000
C        0.05100000       0.02760000       0.17050000
C        1.28040000      -0.75810000      -0.19260000
C        2.56990000      -0.00910000       0.17800000
C        2.09390000      -0.00710000       1.67840000
C        2.07080000       1.28410000       2.45290000
O        1.10230000       1.76010000       2.98920000
C        0.79080000      -0.69470000       1.26620000
H        0.79480000       2.08420000       0.13620000
H       -0.52330000       1.75130000      -0.98430000
H       -0.84060000       1.90620000       0.75530000
H       -0.84980000      -0.52740000      -0.08900000
H        1.24820000      -1.59480000      -0.88010000
H        3.47320000      -0.60330000       0.03200000
H        2.71900000       0.96680000      -0.29500000
H        2.74310000      -0.68820000       2.24420000
H        3.06460000       1.79080000       2.51550000
H        0.30630000      -1.46600000       1.85240000
