14
Properties=species:S:1:pos:R:3 gdb_123626=T pbc="F F F"
C        0.07180000       1.47200000      -0.03460000
C        1.33800000       0.68050000       0.00400000
N       -0.00710000       0.01320000      -0.02500000
C       -0.22770000      -0.60420000      -1.36850000
C        1.01540000      -0.26820000      -2.14360000
N        1.54080000      -0.47210000      -3.31020000
O        2.79980000       0.10000000      -3.22400000
N        3.03020000       0.66020000      -1.97690000
C        1.93250000       0.43890000      -1.32320000
H       -0.28090000       1.95330000       0.87290000
H       -0.15550000       2.00720000      -0.95500000
H        1.92350000       0.59000000       0.91120000
H       -0.34390000      -1.68500000      -1.24250000
H       -1.14680000      -0.21690000      -1.81720000
