20
Properties=species:S:1:pos:R:3 gdb_33409=T pbc="F F F"
N       -0.29840000      -1.09370000      -0.05630000
C       -0.14070000       0.05080000      -0.02480000
C        0.07080000       1.50840000      -0.00280000
C        1.56220000       1.82140000       0.04840000
C        2.05080000       3.06440000       0.74510000
C        2.32400000       1.70560000       1.34160000
C       -0.62780000       2.15790000      -1.19250000
C       -2.11540000       2.38760000      -1.17380000
C       -1.16900000       3.55910000      -1.07930000
H       -0.39450000       1.88180000       0.91960000
H        2.09450000       1.52770000      -0.85180000
H        2.87320000       3.61070000       0.29740000
H        1.31870000       3.69540000       1.23770000
H        1.77140000       1.42170000       2.23140000
H        3.33430000       1.31500000       1.30630000
H       -0.19560000       1.87960000      -2.14940000
H       -2.66730000       2.23700000      -2.09420000
H       -2.66080000       2.10260000      -0.28000000
H       -1.08320000       4.06440000      -0.12320000
H       -1.06770000       4.21620000      -1.93550000
