18
Properties=species:S:1:pos:R:3 gdb_95424=T pbc="F F F"
O       -0.05500000       1.43940000      -0.02410000
C        0.01610000       0.02320000      -0.00930000
C       -1.41260000      -0.50700000       0.05820000
C       -1.42460000      -2.03860000       0.15960000
C       -0.43870000      -2.68940000      -0.76620000
C        0.52640000      -2.01560000      -1.41040000
C        0.72820000      -0.51950000      -1.25670000
C        1.42290000      -2.70390000      -2.28600000
N        2.16840000      -3.22590000      -3.00310000
H        0.84210000       1.78870000      -0.03790000
H        0.56150000      -0.32510000       0.88430000
H       -1.92880000      -0.05710000       0.91070000
H       -1.94250000      -0.18490000      -0.84590000
H       -1.20090000      -2.35910000       1.18810000
H       -2.42880000      -2.42770000      -0.04830000
H       -0.51760000      -3.76350000      -0.90820000
H        0.34000000       0.00580000      -2.13890000
H        1.80150000      -0.29800000      -1.21270000
