15
Properties=species:S:1:pos:R:3 gdb_20564=T pbc="F F F"
C       -0.14500000       1.57130000      -0.02610000
C        0.04970000       0.05270000       0.05240000
O       -1.18760000      -0.63090000       0.21430000
C        0.80130000      -0.47920000      -1.13440000
C        1.99270000      -1.11200000      -1.30330000
C        2.05220000      -1.33980000      -2.70470000
N        0.99280000      -0.88990000      -3.32880000
O        0.19410000      -0.33450000      -2.32870000
H        0.81810000       2.09070000      -0.04850000
H       -0.69610000       1.84190000      -0.93230000
H       -0.71120000       1.90970000       0.84510000
H        0.63200000      -0.19500000       0.94530000
H       -1.69420000      -0.51160000      -0.59740000
H        2.71220000      -1.38110000      -0.54850000
H        2.83140000      -1.82050000      -3.27960000
