18
Properties=species:S:1:pos:R:3 gdb_81558=T pbc="F F F"
C        0.36630000       0.94610000      -0.75300000
C        0.00770000       0.03950000       0.40450000
O        0.67230000      -0.02370000       1.41370000
C       -1.26690000      -0.78440000       0.29440000
C       -1.78220000      -1.30260000      -1.07910000
N       -0.54530000      -2.18550000      -1.11330000
C       -1.10430000      -2.32740000       0.29210000
C       -2.53600000      -2.42760000      -0.33090000
O       -3.67860000      -2.05260000       0.38630000
H        1.23080000       1.55890000      -0.49410000
H        0.59300000       0.32740000      -1.62750000
H       -0.48200000       1.58770000      -1.01890000
H       -2.03600000      -0.40500000       0.96970000
H       -2.10930000      -0.73170000      -1.94900000
H       -0.74250000      -3.03580000      -1.65360000
H       -0.61980000      -2.94790000       1.04610000
H       -2.69700000      -3.33620000      -0.93020000
H       -3.93990000      -2.78450000       0.95440000
