16
Properties=species:S:1:pos:R:3 gdb_125592=T pbc="F F F"
C       -0.05010000       1.51050000       0.01950000
C       -0.01500000       0.01310000      -0.03110000
N       -0.01690000      -0.56680000      -1.19670000
N        0.01560000      -1.91450000      -1.17520000
C        0.05040000      -2.73270000      -0.06400000
O        0.07800000      -3.94910000      -0.13720000
C        0.04820000      -1.94210000       1.18740000
C        0.08370000      -2.70740000       2.46940000
N        0.01710000      -0.64570000       1.18260000
H        0.82760000       1.89260000       0.55080000
H       -0.07310000       1.92560000      -0.98850000
H       -0.93110000       1.85050000       0.57350000
H        0.01390000      -2.36180000      -2.08300000
H        0.97400000      -3.34490000       2.50130000
H        0.07800000      -2.02390000       3.31830000
H       -0.77290000      -3.38800000       2.52400000
