21
Properties=species:S:1:pos:R:3 gdb_99271=T pbc="F F F"
C       -0.06610000       1.40210000      -0.14340000
C        0.17350000      -0.09750000       0.01290000
C        0.83650000      -0.45070000       1.32870000
O        1.20040000       0.33270000       2.16750000
O        0.97600000      -1.79090000       1.45250000
C        1.62370000      -2.25730000       2.65410000
C        1.59180000      -3.78210000       2.60640000
C        0.17220000      -4.35000000       2.68650000
O        2.28420000      -4.25630000       1.45980000
H        0.87360000       1.95610000      -0.07990000
H       -0.53120000       1.61630000      -1.10940000
H       -0.72080000       1.77850000       0.64670000
H       -0.76160000      -0.66560000      -0.05510000
H        0.80930000      -0.48640000      -0.79200000
H        2.65410000      -1.89080000       2.66590000
H        1.10300000      -1.85960000       3.53030000
H        2.17220000      -4.14140000       3.46470000
H        0.20600000      -5.43960000       2.61270000
H       -0.30920000      -4.07890000       3.63220000
H       -0.44500000      -3.96500000       1.86890000
H        1.87810000      -3.82680000       0.69800000
