21
Properties=species:S:1:pos:R:3 gdb_60083=T pbc="F F F"
C        0.60440000      -0.11240000       1.27930000
N        0.14220000      -0.29800000      -0.08670000
C        0.93990000      -1.28540000      -0.79620000
C       -1.28590000      -0.54900000      -0.14700000
C       -1.87850000      -0.37080000      -1.54170000
C       -2.05280000      -1.57670000      -2.45770000
C       -3.25480000      -0.96500000      -1.80910000
C       -1.58910000       0.89290000      -2.17500000
N       -1.37820000       1.90540000      -2.69330000
H        1.66190000       0.16830000       1.27210000
H        0.04260000       0.69610000       1.75660000
H        0.49970000      -1.01970000       1.90550000
H        0.84000000      -2.30570000      -0.37540000
H        0.65510000      -1.32060000      -1.84980000
H        1.99530000      -1.00290000      -0.74470000
H       -1.55850000      -1.56520000       0.20670000
H       -1.77610000       0.16110000       0.52840000
H       -1.90780000      -1.42530000      -3.52060000
H       -1.68860000      -2.52450000      -2.07730000
H       -3.71960000      -1.48900000      -0.98100000
H       -3.93590000      -0.38880000      -2.42290000
