13
Properties=species:S:1:pos:R:3 gdb_48192=T pbc="F F F"
O       -0.04150000       0.03450000       0.06610000
C        0.00570000       1.22870000       0.03380000
C        1.34310000       2.02720000      -0.01020000
C        1.37060000       2.80930000      -1.24620000
C        1.33460000       3.42170000      -2.27850000
C        1.42790000       2.85470000       1.18900000
C        1.45310000       3.51000000       2.20540000
C        1.48850000       4.25210000       3.34470000
C        1.51970000       4.90960000       4.35660000
H       -0.89300000       1.87720000       0.03090000
H        2.14540000       1.27870000      -0.01290000
H        1.32620000       3.97190000      -3.18740000
H        1.54750000       5.48830000       5.24670000
