24
Properties=species:S:1:pos:R:3 gdb_10218=T pbc="F F F"
C        0.67330000       1.57030000      -0.01370000
C        0.38510000       0.06530000      -0.01570000
C        0.82690000      -0.67640000       1.26470000
C       -0.11140000      -0.35340000       2.44660000
C        0.46140000      -0.68840000       3.82750000
C        0.91020000      -2.19700000       1.02540000
C        2.14760000      -2.64600000       0.25660000
O        2.07350000      -4.05690000       0.10380000
H        1.74740000       1.76440000       0.08500000
H        0.33710000       2.03550000      -0.94580000
H        0.16890000       2.08700000       0.80890000
H       -0.68980000      -0.10630000      -0.16590000
H        0.88190000      -0.38070000      -0.88520000
H        1.83350000      -0.31610000       1.53110000
H       -0.36410000       0.71290000       2.42700000
H       -1.05880000      -0.88970000       2.29780000
H       -0.25220000      -0.43860000       4.61910000
H        0.70200000      -1.75140000       3.92920000
H        1.38020000      -0.12260000       4.01910000
H        0.90930000      -2.73670000       1.97850000
H        0.01860000      -2.53410000       0.48080000
H        2.19990000      -2.14790000      -0.72420000
H        3.05220000      -2.35430000       0.81610000
H        2.84650000      -4.34630000      -0.38930000
