19
Properties=species:S:1:pos:R:3 gdb_65643=T pbc="F F F"
C        0.27940000       1.46450000      -0.33950000
C        0.07130000      -0.01250000      -0.04900000
O        0.91090000      -0.87670000      -0.87300000
C        1.35430000      -1.61750000       0.29110000
C        2.70950000      -1.11650000       0.83690000
C        1.94930000      -0.14410000       1.79520000
C        0.59100000      -0.66120000       1.25060000
C       -1.37370000      -0.39450000      -0.35470000
O       -2.22390000      -0.61210000       0.46820000
H        1.33510000       1.73100000      -0.24940000
H       -0.03910000       1.69980000      -1.36080000
H       -0.30500000       2.07770000       0.35420000
H        1.18250000      -2.69120000       0.18440000
H        3.28530000      -1.88460000       1.35990000
H        3.34230000      -0.65820000       0.07390000
H        2.09110000      -0.38750000       2.85030000
H        2.14820000       0.92260000       1.66960000
H       -0.17780000      -0.96300000       1.95880000
H       -1.57140000      -0.47590000      -1.44800000
