16
Properties=species:S:1:pos:R:3 gdb_52084=T pbc="F F F"
O        0.31490000       0.01710000       0.14830000
C        0.49150000       1.10730000      -0.30050000
O        0.71470000       2.18250000       0.49430000
C        0.91400000       3.45520000      -0.13000000
C        2.36080000       3.87180000      -0.03000000
C        2.68500000       5.27610000       0.39420000
N        2.96690000       4.16470000       1.28610000
C        3.30530000       3.19840000      -0.97280000
O        2.95080000       2.50950000      -1.89730000
H        0.49350000       1.36110000      -1.37490000
H        0.61200000       3.41560000      -1.18250000
H        0.26860000       4.16480000       0.39570000
H        3.55890000       5.77410000      -0.01660000
H        1.83850000       5.92970000       0.59020000
H        2.26140000       4.07310000       2.01340000
H        4.37600000       3.39020000      -0.74920000
