15
Properties=species:S:1:pos:R:3 gdb_25327=T pbc="F F F"
O       -0.12510000      -0.00040000      -0.10810000
C        0.00640000       1.19640000      -0.00040000
C        1.26560000       1.93270000      -0.00970000
C        1.44690000       3.30130000       0.11170000
C        1.12250000       4.78140000       0.27640000
C        2.68030000       4.99640000       0.19730000
N        2.78080000       3.52200000       0.04740000
C        3.41390000       2.31420000      -0.11060000
N        2.52170000       1.35410000      -0.14660000
H       -0.87930000       1.86430000       0.12160000
H        0.55750000       5.23640000      -0.53950000
H        0.67120000       5.06430000       1.22940000
H        3.04100000       5.54590000      -0.67430000
H        3.15530000       5.37280000       1.10520000
H        4.48310000       2.19580000      -0.19080000
