19
Properties=species:S:1:pos:R:3 gdb_89691=T pbc="F F F"
C       -0.08120000       1.52090000       0.03770000
C        0.04530000       0.00020000       0.04180000
C        0.97630000      -0.57790000      -1.07940000
C        1.98910000      -1.30870000      -0.16620000
C        1.07100000      -2.04250000       0.85520000
C        0.81230000      -0.57020000       1.25670000
N        2.23900000      -0.22530000       0.86940000
C        3.13100000      -1.95090000      -0.78130000
N        4.03870000      -2.48010000      -1.26370000
H        0.90240000       1.98410000       0.15350000
H       -0.52010000       1.87560000      -0.90060000
H       -0.72370000       1.86530000       0.85550000
H       -0.94930000      -0.45450000      -0.01200000
H        0.47100000      -1.26350000      -1.76250000
H        1.46990000       0.20410000      -1.65910000
H        0.24820000      -2.65460000       0.47300000
H        1.64960000      -2.59200000       1.60080000
H        0.47980000      -0.28020000       2.25290000
H        2.85620000      -0.62420000       1.57910000
