18
Properties=species:S:1:pos:R:3 gdb_19970=T pbc="F F F"
C       -0.15390000       1.59550000      -0.02270000
C        0.07550000       0.09140000      -0.02840000
C        1.43570000      -0.45560000      -0.51220000
O        1.57330000      -1.27860000       0.66880000
C        0.43100000      -0.65960000       1.29140000
C        0.81490000       0.17240000       2.49060000
C        2.08050000      -0.05960000       3.19800000
O        1.91690000       1.06550000       2.32780000
H        0.66060000       2.12240000       0.47970000
H       -0.22480000       1.97280000      -1.04870000
H       -1.09110000       1.85250000       0.48330000
H       -0.75170000      -0.41240000      -0.53630000
H        1.43400000      -1.05630000      -1.42840000
H        2.22970000       0.29900000      -0.56870000
H       -0.30700000      -1.40860000       1.61240000
H       -0.02620000       0.58820000       3.04940000
H        2.15680000       0.17860000       4.25770000
H        2.74830000      -0.83050000       2.82350000
