14
Properties=species:S:1:pos:R:3 gdb_7029=T pbc="F F F"
N        0.92490000       0.40090000      -0.71020000
C       -0.10270000       0.52360000       0.02360000
N       -1.29090000      -0.09680000      -0.34340000
C       -2.45120000      -0.02370000       0.39760000
O       -2.53670000       0.60460000       1.43290000
C       -3.63930000      -0.77690000      -0.18350000
C       -4.86730000       0.12540000      -0.26270000
O       -5.64580000       0.10330000      -1.17710000
H        1.71030000       0.91060000      -0.30990000
H       -0.19950000       1.07780000       0.95870000
H       -1.26590000      -0.62680000      -1.20300000
H       -3.45700000      -1.22940000      -1.16060000
H       -3.88190000      -1.57630000       0.52980000
H       -4.98500000       0.80130000       0.60790000
