15
Properties=species:S:1:pos:R:3 gdb_18507=T pbc="F F F"
O       -0.15960000       0.00310000       0.26210000
C       -0.03350000       1.19840000       0.09980000
N        1.14570000       1.84010000      -0.12250000
C        2.41730000       1.17070000      -0.18070000
C        3.26970000       1.28640000      -1.50730000
C        4.34900000       1.99320000      -0.68430000
O        3.73180000       3.14860000      -0.09500000
C        3.56540000       1.88030000       0.55620000
H       -0.88680000       1.90480000       0.11660000
H        1.15050000       2.84220000      -0.23860000
H        2.26180000       0.13590000       0.12280000
H        3.56990000       0.30770000      -1.88790000
H        2.83310000       1.88040000      -2.31320000
H        5.42120000       2.02770000      -0.83150000
H        3.86290000       1.81340000       1.59620000
