19
Properties=species:S:1:pos:R:3 gdb_100381=T pbc="F F F"
C       -0.37040000       1.31980000      -0.04500000
O       -0.06440000      -0.06260000      -0.01310000
C        0.67560000      -0.54540000       1.11200000
C        0.62880000      -2.07580000       0.98010000
C        2.14410000      -0.03600000       1.07500000
C        2.87000000      -0.39810000      -0.20540000
O        4.00430000      -0.80210000      -0.24510000
C        0.05790000      -0.13820000       2.38460000
C       -0.43260000       0.19030000       3.43180000
H        0.52510000       1.94840000      -0.14950000
H       -1.00060000       1.46940000      -0.92440000
H       -0.91890000       1.63520000       0.85050000
H        1.06170000      -2.37800000       0.02240000
H        1.19020000      -2.54840000       1.78930000
H       -0.40730000      -2.41700000       1.01720000
H        2.14440000       1.05840000       1.15910000
H        2.70660000      -0.42510000       1.92700000
H        2.27890000      -0.24480000      -1.13330000
H       -0.87050000       0.47490000       4.35700000
