21
Properties=species:S:1:pos:R:3 gdb_40835=T pbc="F F F"
C        0.44750000       1.52060000       0.21120000
O        1.24610000       0.40620000      -0.20320000
C       -0.12430000       0.17420000       0.11720000
C       -0.41430000      -0.68770000       1.32770000
C        0.05380000      -2.13530000       1.11160000
C       -0.16380000      -2.97220000       2.37940000
C        0.45840000      -2.26380000       3.58980000
C       -0.04370000      -0.82140000       3.66190000
O        0.21280000      -0.11130000       2.46070000
H        0.68800000       1.91760000       1.19300000
H        0.23000000       2.25270000      -0.56560000
H       -0.74920000      -0.06690000      -0.74530000
H       -1.51120000      -0.68590000       1.47900000
H       -0.47980000      -2.57060000       0.25870000
H        1.11820000      -2.10480000       0.85260000
H       -1.24160000      -3.10290000       2.55000000
H        0.25770000      -3.97510000       2.25460000
H        0.21530000      -2.78570000       4.52240000
H        1.55080000      -2.25300000       3.49440000
H       -1.12720000      -0.81300000       3.87670000
H        0.45870000      -0.26080000       4.45550000
