17
Properties=species:S:1:pos:R:3 gdb_37171=T pbc="F F F"
C        0.04180000       1.56600000       0.12680000
C        1.35040000       0.83670000      -0.08870000
C        0.03220000       0.05780000       0.06040000
C        0.08700000      -0.54570000      -1.32940000
C       -0.63120000      -1.19410000      -2.50180000
O        0.16420000      -0.37010000      -3.40840000
C        0.54700000       0.52750000      -2.33580000
C        1.82090000       0.32570000      -1.50130000
O        1.48010000      -1.08060000      -1.37930000
H       -0.08440000       1.99160000       1.11830000
H       -0.42600000       2.15790000      -0.64940000
H        2.08890000       0.83690000       0.70350000
H       -0.18250000      -0.54600000       0.93300000
H       -0.45360000      -2.26270000      -2.64430000
H       -1.69920000      -0.95760000      -2.58700000
H        0.13000000       1.52170000      -2.49090000
H        2.85270000       0.52600000      -1.79460000
