13
Properties=species:S:1:pos:R:3 gdb_5292=T pbc="F F F"
N       -0.10980000       1.32390000       0.13190000
C        0.06310000      -0.03520000       0.01810000
N        1.16130000      -0.69270000      -0.05330000
C       -1.20660000      -0.78550000       0.02360000
C       -1.39980000      -2.12820000       0.02970000
O       -2.74340000      -2.35980000       0.02420000
C       -3.30130000      -1.12780000       0.01390000
N       -2.45060000      -0.15650000       0.01340000
H        0.66010000       1.92430000      -0.11220000
H       -1.03880000       1.68260000      -0.02800000
H        1.96850000      -0.06740000      -0.04020000
H       -0.74680000      -2.98160000       0.03740000
H       -4.37860000      -1.08000000       0.00710000
