18
Properties=species:S:1:pos:R:3 gdb_51003=T pbc="F F F"
O       -0.98030000       1.10530000      -0.37870000
C        0.13160000       0.63510000      -0.35210000
C        1.42310000       1.36910000      -0.61420000
C        1.38590000       2.79680000      -1.14030000
C        0.38120000       3.24350000      -2.14100000
N        0.32210000       3.73340000      -0.75140000
C        2.76750000       3.38910000      -1.20370000
C        3.05530000       4.75210000      -0.75060000
O        3.40600000       3.62200000       0.05710000
H        0.27950000      -0.43800000      -0.09530000
H        1.97390000       1.35670000       0.34060000
H        2.02440000       0.73240000      -1.28050000
H        0.66320000       3.98880000      -2.88010000
H       -0.37730000       2.53740000      -2.46300000
H       -0.41350000       3.21930000      -0.27310000
H        3.42460000       2.93770000      -1.95080000
H        3.89740000       5.29250000      -1.18110000
H        2.23180000       5.35180000      -0.37410000
