17
Properties=species:S:1:pos:R:3 gdb_53547=T pbc="F F F"
C        0.18720000       1.47600000       0.48670000
C        0.11620000       0.05930000       0.16000000
C        0.05840000      -1.11050000      -0.11500000
C       -0.02700000      -2.53190000      -0.43560000
C       -1.40550000      -3.11150000      -0.16460000
C       -1.57280000      -4.44520000       0.45740000
O       -1.80390000      -3.26150000       1.20240000
C       -2.52540000      -2.67120000      -1.06210000
O       -2.36760000      -2.14940000      -2.13440000
H        1.16750000       1.74020000       0.89840000
H        0.02000000       2.09800000      -0.39940000
H       -0.56850000       1.74880000       1.23150000
H        0.19730000      -2.69180000      -1.49720000
H        0.71350000      -3.09600000       0.14270000
H       -2.45480000      -5.04690000       0.23980000
H       -0.67520000      -5.00580000       0.71460000
H       -3.53190000      -2.88860000      -0.64020000
