15
Properties=species:S:1:pos:R:3 gdb_109423=T pbc="F F F"
C       -0.05610000       1.45900000      -0.07570000
O        0.02580000       0.05780000       0.14770000
C       -1.18880000      -0.61390000       0.02170000
C       -1.60650000      -0.94330000      -1.42750000
O       -1.59480000      -0.18660000      -2.36830000
C       -2.00340000      -2.37900000      -1.45350000
C       -1.73800000      -2.96960000      -0.27710000
C       -1.12220000      -2.00680000       0.68040000
O       -0.65880000      -2.26760000       1.76000000
H        0.94350000       1.85950000       0.10440000
H       -0.36620000       1.68770000      -1.10020000
H       -0.76140000       1.92660000       0.62800000
H       -2.01810000      -0.05960000       0.49870000
H       -2.43580000      -2.83740000      -2.33520000
H       -1.91070000      -4.00530000      -0.00950000
