17
Properties=species:S:1:pos:R:3 gdb_35190=T pbc="F F F"
C       -0.07500000      -1.19450000      -0.04750000
C       -0.03470000       0.00680000      -0.01180000
C        0.02410000       1.44080000      -0.01460000
N        0.58640000       2.10950000       1.19550000
C        1.32550000       2.17450000      -0.04830000
C        2.77170000       1.69800000      -0.17870000
N        3.16140000       2.98130000      -0.88070000
C        2.34420000       3.03150000      -2.10390000
C        1.70320000       3.41140000      -0.82560000
H       -0.11360000      -2.25560000      -0.06340000
H       -0.81070000       1.93510000      -0.50830000
H        0.08230000       2.97850000       1.36330000
H        3.27580000       1.62370000       0.78630000
H        2.95710000       0.79530000      -0.76870000
H        2.63680000       3.83170000      -2.77720000
H        2.06000000       2.10190000      -2.59320000
H        1.41010000       4.42860000      -0.58130000
