19
Properties=species:S:1:pos:R:3 gdb_31116=T pbc="F F F"
C       -0.14600000       1.55510000       0.19240000
C       -0.05940000       0.07540000       0.00200000
C        0.01530000      -0.69540000      -1.14660000
C        0.06390000      -0.25060000      -2.56970000
O        1.20250000      -0.78310000      -3.27040000
C        0.04830000      -2.07170000      -0.74160000
N        0.07090000      -3.14360000      -1.64950000
C       -0.01240000      -2.09830000       0.63120000
N       -0.08310000      -0.78300000       1.06550000
H        0.12770000       2.07880000      -0.72660000
H       -1.15750000       1.88350000       0.46420000
H        0.53210000       1.90110000       0.98190000
H       -0.79740000      -0.62530000      -3.13500000
H        0.04520000       0.84680000      -2.64090000
H        1.97210000      -0.59110000      -2.72320000
H        0.61330000      -2.90330000      -2.47190000
H        0.41800000      -4.00240000      -1.24330000
H       -0.00560000      -2.91900000       1.32960000
H       -0.13920000      -0.50010000       2.02750000
