16
Properties=species:S:1:pos:R:3 gdb_14013=T pbc="F F F"
O       -0.97680000       1.05360000       0.54460000
C        0.01580000       1.13060000      -0.13420000
C        1.07260000       2.16440000       0.05740000
O        2.37250000       1.81020000      -0.45390000
C        1.67740000       2.83350000      -1.11760000
C        1.24180000       2.81970000      -2.58790000
C        1.34080000       4.37530000      -2.56120000
C        2.12690000       4.29360000      -1.21710000
H        0.22440000       0.42810000      -0.97100000
H        1.05970000       2.68420000       1.01420000
H        2.01200000       2.36170000      -3.21530000
H        0.27550000       2.37710000      -2.83690000
H        1.85700000       4.84470000      -3.39930000
H        0.36420000       4.84830000      -2.43960000
H        1.83400000       4.96970000      -0.41120000
H        3.20980000       4.35820000      -1.35860000
