15
Properties=species:S:1:pos:R:3 gdb_21003=T pbc="F F F"
C       -0.00060000       1.45750000       0.05200000
N        0.00140000       0.01460000      -0.07280000
C        0.03810000      -0.74980000      -1.19180000
C        0.01960000      -2.04020000      -0.71980000
C        0.04380000      -3.32270000      -1.48520000
O        0.07370000      -3.00260000      -2.86760000
N       -0.02660000      -2.00100000       0.63990000
N       -0.03750000      -0.75730000       1.03040000
H        0.90750000       1.88470000      -0.38250000
H       -0.87430000       1.88750000      -0.44550000
H       -0.03790000       1.68850000       1.11650000
H        0.07220000      -0.34090000      -2.18610000
H        0.92460000      -3.91230000      -1.18610000
H       -0.84330000      -3.92140000      -1.22550000
H        0.09690000      -3.82530000      -3.36380000
