18
Properties=species:S:1:pos:R:3 gdb_50093=T pbc="F F F"
O        0.47440000      -0.02630000      -0.91120000
C        0.30470000       0.88460000      -0.13900000
C        1.24850000       2.02500000      -0.00160000
C        0.66480000       3.39320000       0.24630000
N        1.44010000       2.73990000       1.26760000
C        0.77270000       2.29930000       2.49280000
C        1.03480000       3.31590000       3.58220000
C        0.05520000       4.35490000       3.92260000
O        0.22000000       3.19800000       4.74570000
H       -0.59440000       0.92630000       0.51440000
H        2.14350000       1.92920000      -0.61070000
H        1.11540000       4.25070000      -0.24560000
H       -0.41650000       3.45150000       0.37750000
H       -0.31490000       2.16540000       2.39460000
H        1.20100000       1.33450000       2.78840000
H        2.08850000       3.51630000       3.77620000
H        0.39050000       5.29310000       4.36130000
H       -0.88640000       4.40710000       3.37670000
