20
Properties=species:S:1:pos:R:3 gdb_58690=T pbc="F F F"
C        0.56930000      -0.04080000       1.37200000
C        0.05280000      -0.03640000      -0.06510000
O        0.95130000      -0.68440000      -0.95650000
C       -1.35030000      -0.63950000      -0.16840000
C       -1.84140000      -1.25640000      -1.44880000
C       -1.55060000      -2.12070000      -0.23790000
O       -2.28710000       0.04340000       0.64520000
C       -2.82380000       1.17490000       0.13360000
N       -3.55490000       1.90380000       0.85900000
H        1.55090000       0.43840000       1.42220000
H       -0.11920000       0.48760000       2.03510000
H        0.66130000      -1.06980000       1.74180000
H       -0.00610000       1.00160000      -0.42060000
H        1.33950000      -1.43310000      -0.49220000
H       -2.88160000      -1.10680000      -1.71490000
H       -1.14430000      -1.29490000      -2.27670000
H       -0.67460000      -2.75870000      -0.26670000
H       -2.39390000      -2.52220000       0.31110000
H       -2.56590000       1.34030000      -0.91980000
H       -3.89460000       2.69720000       0.31900000
