19
Properties=species:S:1:pos:R:3 gdb_2220=T pbc="F F F"
C       -0.01900000       1.56440000       0.04010000
C        0.08930000       0.05430000       0.08620000
C        1.33040000      -0.74730000      -0.22610000
C        2.59220000      -0.05880000       0.30560000
C        1.97080000      -0.06160000       1.73830000
C        0.71650000      -0.76370000       1.18730000
C       -0.01880000      -1.85180000       1.91730000
H        0.87890000       2.06240000       0.41470000
H       -0.18070000       1.91150000      -0.98670000
H       -0.86370000       1.91490000       0.64410000
H       -0.80120000      -0.43970000      -0.30190000
H        1.32060000      -1.52710000      -0.98020000
H        3.47810000      -0.69460000       0.24220000
H        2.84020000       0.91500000      -0.12970000
H        2.53090000      -0.70150000       2.42540000
H        1.81920000       0.90820000       2.22420000
H       -0.58010000      -1.45150000       2.77140000
H       -0.73680000      -2.35580000       1.26140000
H        0.67000000      -2.61180000       2.30530000
