16
Properties=species:S:1:pos:R:3 gdb_55242=T pbc="F F F"
N        0.09280000       1.16820000      -0.42380000
C        0.05500000      -0.10510000       0.05900000
O        1.03790000      -0.68930000       0.46690000
C       -1.34680000      -0.75380000       0.10040000
C       -2.06910000      -0.84620000      -1.27250000
N       -1.67960000      -2.17180000      -1.70540000
C       -1.31610000      -2.97570000      -0.63250000
O       -1.09400000      -4.16150000      -0.66390000
N       -1.26580000      -2.14500000       0.49500000
H        0.96710000       1.66650000      -0.38240000
H       -0.73810000       1.68120000      -0.66130000
H       -1.95190000      -0.17030000       0.80590000
H       -3.15510000      -0.74470000      -1.13650000
H       -1.73560000      -0.07320000      -1.97160000
H       -2.11760000      -2.61890000      -2.49420000
H       -0.52250000      -2.37360000       1.14240000
