19
Properties=species:S:1:pos:R:3 gdb_52655=T pbc="F F F"
C        0.02060000       1.47850000       0.03030000
C        0.02310000       0.02200000       0.01260000
C        0.01380000      -1.18320000       0.01910000
C       -0.00840000      -2.64430000      -0.01190000
C       -1.44660000      -3.19170000       0.05070000
C        0.75530000      -3.13750000      -1.29250000
N        2.11170000      -2.62330000      -1.46480000
C        0.79820000      -4.60770000      -1.31180000
N        0.82290000      -5.76260000      -1.29050000
H        0.91310000       1.87330000       0.52760000
H       -0.00360000       1.88880000      -0.98500000
H       -0.85490000       1.86410000       0.56380000
H        0.54980000      -3.02640000       0.85410000
H       -2.02750000      -2.84900000      -0.81120000
H       -1.44330000      -4.28480000       0.05800000
H       -1.94730000      -2.83910000       0.95530000
H        0.16780000      -2.81660000      -2.16240000
H        2.07100000      -1.60880000      -1.40900000
H        2.69890000      -2.93540000      -0.69580000
