17
Properties=species:S:1:pos:R:3 gdb_127952=T pbc="F F F"
C        0.03830000       1.46200000      -0.05860000
N        0.10810000       0.01590000      -0.14550000
C        0.57050000      -0.63110000       0.85560000
N        1.02640000      -0.05970000       2.05850000
N        1.52140000      -0.69890000       3.13770000
N        1.60890000      -1.96050000       3.12570000
C        1.19140000      -2.68010000       1.99400000
C        1.35700000      -4.16210000       2.13430000
C        0.69220000      -2.06930000       0.89750000
H        1.02660000       1.93160000       0.08310000
H       -0.37530000       1.85890000      -0.98870000
H       -0.61250000       1.81170000       0.76080000
H        1.00610000       0.94040000       2.18400000
H        2.40690000      -4.40990000       2.32290000
H        0.78740000      -4.52720000       2.99540000
H        1.02290000      -4.68820000       1.23800000
H        0.36890000      -2.61800000       0.02130000
