18
Properties=species:S:1:pos:R:3 gdb_111665=T pbc="F F F"
C        0.03990000       1.10760000      -0.36340000
O       -0.18850000       0.04640000       0.55360000
C       -1.37170000      -0.63260000       0.29380000
C       -1.44530000      -1.67590000      -0.76780000
N       -0.18120000      -2.06310000      -1.38200000
C        0.69210000      -2.60190000      -0.32500000
C       -0.16880000      -2.79220000       0.93670000
O        0.14410000      -3.43820000       1.90430000
C       -1.47170000      -2.08920000       0.71470000
H        0.97620000       1.58460000      -0.06600000
H        0.12760000       0.73090000      -1.38910000
H       -0.76800000       1.85280000      -0.31860000
H       -2.27740000      -0.04740000       0.46530000
H       -2.31720000      -1.74090000      -1.40830000
H       -0.37110000      -2.79030000      -2.06060000
H        1.14730000      -3.55220000      -0.61600000
H        1.49830000      -1.90250000      -0.07840000
H       -2.33640000      -2.42610000       1.27150000
