17
Properties=species:S:1:pos:R:3 gdb_30110=T pbc="F F F"
C       -0.02370000       1.50270000      -0.29560000
C       -0.06080000       0.03590000       0.03350000
O        1.17110000      -0.68960000      -0.03060000
C        0.55300000      -0.55810000       1.24830000
C        1.30320000       0.21040000       2.25730000
C        2.47460000       0.92610000       2.20330000
N        2.78520000       1.45450000       3.43530000
C        1.81920000       1.06570000       4.23270000
N        0.89570000       0.30570000       3.57440000
H        0.76670000       2.01360000       0.25830000
H        0.15110000       1.64560000      -1.36680000
H       -0.98380000       1.96850000      -0.04790000
H       -0.90350000      -0.51440000      -0.39150000
H        0.09930000      -1.48060000       1.62170000
H        3.11270000       1.06440000       1.34500000
H        1.72930000       1.29520000       5.28400000
H        0.06500000      -0.10210000       3.97030000
