18
Properties=species:S:1:pos:R:3 gdb_15146=T pbc="F F F"
O        0.28220000       0.11900000       0.26030000
C        0.38830000       1.29890000       0.41110000
O        0.66180000       2.14370000      -0.59820000
C        0.80970000       3.53770000      -0.29360000
C        2.27070000       3.96280000      -0.41340000
C        2.44670000       5.44980000      -0.19270000
C        2.56410000       6.00840000       1.20650000
C        3.76260000       6.00160000       0.29050000
H        0.26740000       1.81820000       1.38320000
H        0.18450000       4.07800000      -1.01130000
H        0.42410000       3.74690000       0.71250000
H        2.86620000       3.40360000       0.31930000
H        2.64000000       3.67330000      -1.40430000
H        1.90950000       6.07330000      -0.90380000
H        2.08850000       6.95690000       1.42890000
H        2.56020000       5.30660000       2.03470000
H        4.55910000       5.29630000       0.50380000
H        4.10500000       6.94580000      -0.11760000
