16
Properties=species:S:1:pos:R:3 gdb_131614=T pbc="F F F"
O        0.02580000       1.44450000       0.02670000
C       -0.00820000       0.05850000       0.26810000
C       -1.40140000      -0.50820000      -0.06500000
O       -1.74640000      -0.11270000      -1.38890000
C       -1.45280000      -1.99690000       0.10320000
N       -1.21760000      -2.80000000      -0.93780000
N       -1.30180000      -4.01650000      -0.41610000
N       -1.57040000      -4.08600000       0.87760000
C       -1.67000000      -2.80450000       1.23440000
H       -0.39140000       1.56100000      -0.83730000
H        0.74080000      -0.48590000      -0.33260000
H        0.22890000      -0.10230000       1.32560000
H       -2.13170000      -0.03060000       0.59820000
H       -1.44070000      -0.81120000      -1.98170000
H       -1.18620000      -4.84420000      -0.97860000
H       -1.89150000      -2.52780000       2.25270000
