19
Properties=species:S:1:pos:R:3 gdb_107989=T pbc="F F F"
C        0.10260000       1.57960000       0.05750000
C        0.04880000       0.04890000      -0.01690000
C        0.64280000      -0.48790000      -1.28310000
O        2.04720000      -0.16990000      -1.60370000
C        1.61370000      -1.01180000      -2.71830000
C        0.83520000      -1.96790000      -1.76720000
C       -0.44120000      -2.37410000      -2.48390000
O       -0.79120000      -1.14390000      -3.16200000
C        0.24690000      -0.27690000      -2.78350000
H        1.13240000       1.93260000      -0.04170000
H       -0.48710000       2.03470000      -0.74470000
H       -0.29450000       1.93740000       1.01160000
H        0.58390000      -0.38990000       0.83440000
H       -0.98880000      -0.30230000       0.04740000
H        2.33590000      -1.24370000      -3.50020000
H        1.37480000      -2.67870000      -1.14380000
H       -0.29550000      -3.17320000      -3.22060000
H       -1.25150000      -2.66670000      -1.80550000
H        0.14510000       0.71320000      -3.22240000
