18
Properties=species:S:1:pos:R:3 gdb_6565=T pbc="F F F"
C       -0.00190000       1.47260000       0.03330000
C        0.04270000      -0.02970000       0.02460000
C        0.61680000      -0.96140000      -1.08880000
C        0.07630000      -1.90800000       0.02350000
O       -0.00880000      -3.28910000       0.03020000
C        0.73870000      -0.96270000       1.07080000
C       -1.17340000      -0.99790000       0.06990000
O       -1.95350000      -0.94250000       1.23680000
H        1.00690000       1.89870000       0.01960000
H       -0.54130000       1.85600000      -0.83970000
H       -0.51150000       1.83800000       0.93080000
H        0.09180000      -0.96930000      -2.04870000
H        1.70160000      -0.93270000      -1.21960000
H        0.88170000      -3.65290000       0.07710000
H        1.83250000      -0.93650000       1.08090000
H        0.31270000      -0.96860000       2.07340000
H       -1.79880000      -1.01230000      -0.83430000
H       -2.40390000      -1.78820000       1.33110000
