17
Properties=species:S:1:pos:R:3 gdb_120250=T pbc="F F F"
O        0.10050000       1.42430000       0.10600000
C        0.02890000       0.01920000      -0.07170000
C       -1.37620000      -0.52960000       0.20270000
C       -1.45100000      -2.04650000       0.05580000
C       -2.83220000      -2.72780000       0.06490000
O       -3.53980000      -2.22550000      -1.06230000
C       -2.64750000      -3.34610000      -1.27120000
C       -1.26290000      -2.70610000      -1.35390000
O       -0.34880000      -2.77190000      -2.12000000
H       -0.42320000       1.83550000      -0.58900000
H        0.36350000      -0.28320000      -1.07430000
H        0.74140000      -0.40580000       0.64470000
H       -1.67580000      -0.23610000       1.21600000
H       -2.09260000      -0.07270000      -0.49020000
H       -0.75270000      -2.54780000       0.74030000
H       -3.40640000      -3.10510000       0.90210000
H       -3.06100000      -4.24170000      -1.71850000
