11
Properties=species:S:1:pos:R:3 gdb_3799=T pbc="F F F"
C       -0.00100000       1.43020000      -0.01660000
O        0.01160000      -0.00650000      -0.01590000
C        0.59530000      -0.60140000      -1.04120000
C        0.73590000      -1.95260000      -1.26900000
N        1.40270000      -2.06320000      -2.44980000
N        1.68680000      -0.97300000      -2.97030000
O        1.13650000       0.09430000      -2.01100000
H        1.01860000       1.82400000      -0.01260000
H       -0.53450000       1.80990000      -0.89190000
H       -0.52090000       1.71510000       0.89720000
H        0.41440000      -2.79570000      -0.68560000
