22
Properties=species:S:1:pos:R:3 gdb_95775=T pbc="F F F"
C        0.13440000       1.61970000       0.01880000
C        0.00690000       0.09130000      -0.01710000
C        0.68610000      -0.48640000      -1.26330000
C        0.48510000      -1.98490000      -1.43580000
O        1.12440000      -2.80030000      -0.44930000
C        0.57060000      -2.86310000       0.81060000
C        0.40190000      -4.29380000       1.23920000
N        0.27610000      -1.90460000       1.57870000
C        0.58510000      -0.51480000       1.27570000
H        1.18530000       1.92570000       0.08600000
H       -0.28500000       2.07340000      -0.88500000
H       -0.39060000       2.04180000       0.88150000
H       -1.06140000      -0.16620000      -0.05500000
H        0.29100000       0.00320000      -2.16340000
H        1.76260000      -0.27070000      -1.23300000
H       -0.58870000      -2.22030000      -1.45140000
H        0.91520000      -2.31700000      -2.38500000
H        1.35890000      -4.81890000       1.14910000
H        0.05090000      -4.34130000       2.26920000
H       -0.30490000      -4.81060000       0.58060000
H        1.67970000      -0.39040000       1.25470000
H        0.22450000       0.07750000       2.12370000
