20
Properties=species:S:1:pos:R:3 gdb_53322=T pbc="F F F"
C        0.05360000       1.71700000      -0.48550000
C       -0.01330000       0.26910000      -0.35140000
C       -0.07740000      -0.92900000      -0.23770000
C       -0.11800000      -2.37600000      -0.14210000
C        0.33030000      -3.11290000       1.15750000
C       -1.03220000      -3.79930000       1.13270000
C       -2.15360000      -2.84010000       1.15980000
C       -2.21380000      -1.54690000       1.93950000
N       -1.47460000      -3.06890000      -0.13810000
H        1.08770000       2.07320000      -0.41860000
H       -0.34620000       2.04500000      -1.45140000
H       -0.52120000       2.21970000       0.30040000
H        0.41530000      -2.79520000      -1.00090000
H        1.16920000      -3.78790000       0.98320000
H        0.55040000      -2.49580000       2.03220000
H       -1.17810000      -4.86960000       1.24300000
H       -3.12550000      -3.32990000       1.10480000
H       -1.23760000      -1.09140000       2.10690000
H       -2.83470000      -0.81220000       1.41740000
H       -2.67150000      -1.74130000       2.91610000
