23
Properties=species:S:1:pos:R:3 gdb_63905=T pbc="F F F"
C        0.11090000       1.52120000      -0.00870000
C       -0.06480000      -0.00720000       0.00450000
C       -1.57210000      -0.34450000       0.05100000
C        0.58270000      -0.60350000      -1.27190000
C        0.75730000      -2.12100000      -1.22510000
C        2.12550000      -2.70840000      -0.96490000
C        1.06500000      -2.73930000       0.11790000
C        1.12770000      -1.81810000       1.27960000
C        0.61480000      -0.58810000       1.23370000
H        1.17030000       1.79860000       0.00460000
H       -0.34080000       1.95910000      -0.90600000
H       -0.36740000       1.98080000       0.86350000
H       -2.10100000       0.12100000      -0.78920000
H       -1.73370000      -1.42520000       0.00340000
H       -2.02820000       0.01950000       0.97790000
H       -0.01880000      -0.32520000      -2.14520000
H        1.55960000      -0.12580000      -1.41000000
H        0.10990000      -2.69200000      -1.88270000
H        2.39000000      -3.64490000      -1.44450000
H        2.95070000      -2.01410000      -0.84090000
H        0.64100000      -3.71850000       0.32740000
H        1.59520000      -2.18430000       2.19120000
H        0.65650000       0.05010000       2.11440000
