18
Properties=species:S:1:pos:R:3 gdb_99954=T pbc="F F F"
C       -0.22650000       1.30990000       0.09060000
O       -0.00490000      -0.07950000      -0.04980000
C        0.75090000      -0.52330000      -1.16600000
C        0.12190000      -0.11380000      -2.51470000
C        2.22580000      -0.11440000      -1.08070000
C        0.64380000      -2.05420000      -1.08610000
O        1.44790000      -2.81600000      -1.55630000
C       -0.57240000      -2.57960000      -0.42770000
N       -1.51090000      -3.06510000       0.04170000
H        0.71140000       1.87710000       0.15320000
H       -0.83590000       1.72030000      -0.72470000
H       -0.77220000       1.43500000       1.02800000
H        0.20630000       0.96540000      -2.66590000
H        0.64450000      -0.61130000      -3.33590000
H       -0.93610000      -0.38960000      -2.55070000
H        2.61660000      -0.32190000      -0.08110000
H        2.81080000      -0.68190000      -1.80690000
H        2.34740000       0.95070000      -1.29330000
