17
Properties=species:S:1:pos:R:3 gdb_34382=T pbc="F F F"
C       -0.05270000      -1.17730000      -0.20670000
C       -0.03240000       0.02020000      -0.10050000
C       -0.00140000       1.46310000       0.05100000
O       -0.35920000       2.15800000      -1.18250000
C        0.82740000       2.97860000      -1.11130000
C        1.36720000       2.22080000       0.11930000
C        1.40570000       2.96930000       1.46130000
C        0.00080000       2.79860000       1.99480000
C       -0.75040000       1.98270000       1.25640000
H       -0.07300000      -2.23430000      -0.30820000
H        1.42420000       2.89810000      -2.02630000
H        0.58690000       4.03450000      -0.93060000
H        2.24970000       1.61500000      -0.07950000
H        2.14710000       2.54430000       2.15000000
H        1.67460000       4.02620000       1.33660000
H       -0.33600000       3.29750000       2.89750000
H       -1.77880000       1.70410000       1.45030000
