19
Properties=species:S:1:pos:R:3 gdb_31142=T pbc="F F F"
C        0.15630000       1.41490000      -0.30630000
N       -0.10150000       0.00920000       0.03080000
C        0.62700000      -0.46780000       1.15260000
C        1.78100000      -1.22820000       1.09680000
C        2.51970000      -1.73330000      -0.09490000
N        2.17360000      -1.47210000       2.38610000
C        1.28870000      -0.89650000       3.28320000
C        0.32590000      -0.26440000       2.53430000
O       -0.77210000       0.44550000       2.93780000
H        1.20520000       1.52840000      -0.59700000
H       -0.46400000       1.69830000      -1.16300000
H       -0.04500000       2.11500000       0.51900000
H       -1.09490000      -0.10690000       0.20250000
H        3.48650000      -1.23370000      -0.23870000
H        2.71440000      -2.81100000      -0.03170000
H        1.90950000      -1.54800000      -0.98210000
H        2.98090000      -2.00900000       2.64640000
H        1.42180000      -0.98980000       4.34870000
H       -0.82500000       0.41980000       3.89760000
