20
Properties=species:S:1:pos:R:3 gdb_40458=T pbc="F F F"
C       -0.13130000       1.34170000      -0.30460000
C        1.25440000       0.92610000       0.04620000
N        0.15610000      -0.03910000       0.06980000
C       -0.26950000      -0.53050000       1.34350000
C        0.37720000      -1.84840000       1.85800000
C       -0.95430000      -2.10370000       2.55680000
C       -1.47250000      -0.74510000       3.05200000
C       -0.44680000       0.31460000       2.65560000
C       -1.69380000      -1.17540000       1.62390000
H       -0.65320000       1.98070000       0.40330000
H       -0.41510000       1.48650000      -1.34310000
H        2.00120000       0.77180000      -0.72730000
H        1.64760000       1.27640000       0.99840000
H        0.53710000      -2.54200000       1.02900000
H        1.29030000      -1.76290000       2.45960000
H       -1.31470000      -3.02760000       2.99010000
H       -2.21110000      -0.68350000       3.84060000
H        0.43550000       0.46390000       3.28950000
H       -0.93660000       1.27490000       2.47190000
H       -2.58300000      -1.29660000       1.02330000
