18
Properties=species:S:1:pos:R:3 gdb_93608=T pbc="F F F"
C        0.08670000       1.60560000       0.04080000
C        0.02500000       0.06760000      -0.01280000
C        0.74260000      -0.54920000      -1.23020000
C        2.18060000      -0.83800000      -0.75010000
C        1.98070000      -1.33070000       0.69920000
C        3.14580000      -1.24040000       1.56350000
N        4.08490000      -1.15470000       2.23120000
C        0.75460000      -0.51160000       1.20670000
O        0.45220000      -0.35940000       2.35600000
H        1.11610000       1.97040000      -0.04010000
H       -0.48940000       2.03580000      -0.78330000
H       -0.32600000       1.96790000       0.98550000
H       -1.02490000      -0.23660000       0.04670000
H        0.25680000      -1.48740000      -1.52040000
H        0.72610000       0.10770000      -2.10320000
H        2.70240000      -1.56850000      -1.37070000
H        2.78020000       0.07750000      -0.74280000
H        1.64290000      -2.37740000       0.68250000
