13
Properties=species:S:1:pos:R:3 gdb_1054=T pbc="F F F"
N        0.31380000       1.21340000      -0.54180000
C       -0.15510000       0.26470000       0.45730000
C       -1.48820000      -0.36290000       0.15690000
N       -2.25500000      -0.16290000      -0.86750000
C       -3.35450000      -0.98850000      -0.64770000
C       -3.18380000      -1.65040000       0.51750000
O       -1.98490000      -1.25870000       1.04990000
H        0.35100000       0.74710000      -1.44450000
H       -0.38780000       1.94000000      -0.65840000
H        0.59030000      -0.53160000       0.57780000
H       -0.21270000       0.76510000       1.43220000
H       -4.17670000      -1.03940000      -1.34340000
H       -3.75080000      -2.37190000       1.07980000
