11
Properties=species:S:1:pos:R:3 gdb_132703=T pbc="F F F"
O        0.10920000       1.32700000       0.08280000
C        0.07160000      -0.00540000       0.03840000
N        0.08090000      -0.61680000      -1.13740000
C        0.04180000      -1.94190000      -1.10580000
F        0.05220000      -2.52700000      -2.28690000
N       -0.00510000      -2.73950000      -0.06280000
C       -0.01430000      -2.11250000       1.12510000
C        0.02300000      -0.74070000       1.23230000
F        0.01380000      -0.12330000       2.40960000
H        0.13920000       1.63720000      -0.83430000
H       -0.05260000      -2.72690000       2.02000000
