18
Properties=species:S:1:pos:R:3 gdb_18085=T pbc="F F F"
C       -0.02780000       1.33930000      -0.17480000
O       -0.07150000      -0.06610000      -0.18960000
C       -1.33380000      -0.57670000       0.19290000
C       -1.26810000      -2.07840000       0.11180000
C       -2.46960000      -3.00710000       0.13210000
C       -3.59260000      -2.44920000      -0.73650000
O       -2.68310000      -2.23000000      -1.84780000
C       -1.62350000      -2.85580000      -1.11690000
H        0.97730000       1.63950000      -0.48170000
H       -0.75820000       1.77960000      -0.87240000
H       -0.22800000       1.74650000       0.82980000
H       -1.57910000      -0.25510000       1.22020000
H       -2.11930000      -0.19120000      -0.47400000
H       -0.42050000      -2.50340000       0.64540000
H       -2.56360000      -3.82870000       0.82910000
H       -4.34020000      -3.20490000      -1.00270000
H       -4.09780000      -1.53020000      -0.41730000
H       -0.96720000      -3.52880000      -1.65620000
