17
Properties=species:S:1:pos:R:3 gdb_54697=T pbc="F F F"
C        0.10890000       1.15790000       0.66650000
C        0.12520000      -0.10980000      -0.16480000
O        1.09930000      -0.47180000      -0.78310000
C       -1.15800000      -0.92690000      -0.19100000
C       -1.06540000      -2.43630000      -0.40020000
C       -0.84980000      -2.99300000       1.01690000
O       -0.75420000      -1.88880000       1.92250000
C       -1.84170000      -1.28960000       1.16170000
C       -2.23180000      -2.68650000       0.55560000
H        1.01280000       1.73890000       0.47920000
H       -0.77930000       1.76280000       0.45210000
H        0.06860000       0.88310000       1.72680000
H       -1.88300000      -0.47170000      -0.87590000
H       -0.78940000      -2.98020000      -1.29240000
H       -0.33650000      -3.91470000       1.25270000
H       -2.45240000      -0.59830000       1.73780000
H       -3.15060000      -3.24950000       0.47610000
