17
Properties=species:S:1:pos:R:3 gdb_82739=T pbc="F F F"
O        0.01510000       1.40610000       0.02700000
C        0.03210000       0.00350000       0.02330000
C       -1.36580000      -0.58470000      -0.26930000
O       -1.58500000       0.02090000      -1.58790000
C       -0.59390000      -0.95010000      -2.02170000
C       -1.09880000      -1.97250000      -0.97730000
C        0.11000000      -2.76620000      -0.56780000
C        1.19340000      -2.01630000      -0.80650000
C        0.73720000      -0.64380000      -1.24300000
H       -0.55550000       1.65310000      -0.71510000
H        0.48220000      -0.32700000       0.96010000
H       -2.17360000      -0.41180000       0.43980000
H       -0.56460000      -1.12150000      -3.09780000
H       -2.01980000      -2.49850000      -1.22440000
H        0.08490000      -3.76640000      -0.15510000
H        2.22380000      -2.27670000      -0.59700000
H        1.46840000       0.01250000      -1.71150000
