25
Properties=species:S:1:pos:R:3 gdb_57524=T pbc="F F F"
C        0.00530000       1.23400000       0.66360000
C        0.10020000      -0.22370000       0.17250000
C        0.93910000      -1.04470000       1.16720000
C       -1.32330000      -0.81220000       0.11060000
C        0.68930000      -0.29780000      -1.26470000
C        2.16970000      -0.03520000      -1.46070000
O        2.51860000       1.25990000      -1.02970000
C        3.17620000      -1.14800000      -1.31600000
C        2.84520000      -0.58730000      -2.69020000
H        0.99080000       1.69560000       0.73430000
H       -0.59900000       1.83910000      -0.02180000
H       -0.47250000       1.27280000       1.64930000
H        0.47310000      -1.03280000       2.15890000
H        1.02340000      -2.09190000       0.85510000
H        1.94950000      -0.63930000       1.26740000
H       -1.94470000      -0.27140000      -0.61230000
H       -1.30800000      -1.86750000      -0.18480000
H       -1.81560000      -0.74560000       1.08690000
H        0.49050000      -1.29870000      -1.66670000
H        0.13380000       0.40390000      -1.90140000
H        3.46140000       1.38930000      -1.17090000
H        4.14440000      -0.90130000      -0.88970000
H        2.83040000      -2.14500000      -1.06640000
H        2.27240000      -1.20030000      -3.37820000
H        3.59110000       0.03710000      -3.17300000
