23
Properties=species:S:1:pos:R:3 gdb_121970=T pbc="F F F"
C       -0.15490000       1.35740000       0.09050000
O       -0.10580000      -0.04420000      -0.01100000
C        0.69550000      -0.49010000      -1.08460000
C        0.69160000      -2.01440000      -1.07770000
C        1.40780000      -2.65630000      -2.27720000
C        2.90510000      -2.32560000      -2.32510000
C        1.17900000      -4.18930000      -2.24690000
C        1.67780000      -4.88360000      -3.42780000
C        2.08620000      -5.43790000      -4.41370000
H        0.84360000       1.79230000       0.25880000
H       -0.57870000       1.82000000      -0.81550000
H       -0.79370000       1.60300000       0.94260000
H        0.29780000      -0.11080000      -2.04330000
H        1.71860000      -0.09250000      -0.98230000
H        1.14530000      -2.36390000      -0.14100000
H       -0.35560000      -2.33970000      -1.05700000
H        0.94210000      -2.28060000      -3.19840000
H        3.07960000      -1.25420000      -2.45770000
H        3.40150000      -2.63280000      -1.39630000
H        3.38950000      -2.84870000      -3.15410000
H        1.65730000      -4.60520000      -1.34920000
H        0.10560000      -4.39060000      -2.13940000
H        2.44420000      -5.93810000      -5.27900000
