14
Properties=species:S:1:pos:R:3 gdb_10899=T pbc="F F F"
O       -0.04110000       1.47740000      -0.12240000
C       -0.01510000       0.07550000      -0.00740000
C        0.21620000      -0.57860000       1.38770000
O        1.14380000      -0.54530000       2.14810000
C       -1.08780000      -1.30430000       1.32590000
C       -2.19420000      -0.25200000       1.13010000
C       -1.37240000      -0.63380000      -0.04520000
O       -1.87350000      -1.27350000      -1.15620000
H        0.79400000       1.81290000       0.22280000
H        0.66640000      -0.39470000      -0.73450000
H       -1.32610000      -2.29760000       1.68400000
H       -3.18810000      -0.68770000       1.15270000
H       -2.10970000       0.73140000       1.57980000
H       -2.47810000      -0.67430000      -1.60780000
