17
Properties=species:S:1:pos:R:3 gdb_64914=T pbc="F F F"
C       -0.13070000       1.48750000      -0.02550000
C        0.01930000      -0.02750000       0.00190000
C        1.40230000      -0.61950000      -0.16640000
C        0.78800000      -0.63120000       1.21050000
O        1.20180000       0.28730000       2.17770000
C        0.32140000      -1.93330000       1.77730000
O        0.16000000      -2.94550000       1.14340000
C       -1.10590000      -0.74610000      -0.53260000
C       -2.07100000      -1.28950000      -0.99980000
H        0.71710000       1.97230000       0.45960000
H       -0.19750000       1.83140000      -1.06180000
H       -1.04370000       1.79190000       0.49320000
H        1.48110000      -1.58430000      -0.65420000
H        2.21630000       0.07780000      -0.33430000
H        2.12850000       0.11840000       2.37960000
H        0.13830000      -1.87940000       2.87320000
H       -2.91270000      -1.79320000      -1.40620000
