23
Properties=species:S:1:pos:R:3 gdb_108229=T pbc="F F F"
C        0.54660000      -0.44940000       1.02580000
C        0.57620000      -1.73280000       0.18120000
C        0.95150000      -1.47710000      -1.25290000
C        2.35580000      -1.10500000      -1.72300000
O        2.19640000      -1.85890000      -2.95290000
C        0.89700000      -2.30550000      -2.52750000
C        0.52750000      -3.71070000      -2.87700000
C       -0.00890000      -1.10900000      -2.38680000
C       -1.49840000      -1.29830000      -2.19300000
H        1.52220000       0.04850000       1.02430000
H       -0.18800000       0.26230000       0.63550000
H        0.28690000      -0.66790000       2.06630000
H        1.29280000      -2.43930000       0.62140000
H       -0.40140000      -2.22400000       0.23350000
H        2.57180000      -0.04530000      -1.90880000
H        3.15320000      -1.53850000      -1.10520000
H        1.25200000      -4.42100000      -2.46650000
H       -0.46480000      -3.96810000      -2.49800000
H        0.51520000      -3.83510000      -3.96630000
H        0.25480000      -0.24600000      -2.99850000
H       -1.73460000      -2.19670000      -1.61550000
H       -1.94120000      -0.44590000      -1.66590000
H       -2.00520000      -1.38930000      -3.15980000
