18
Properties=species:S:1:pos:R:3 gdb_128852=T pbc="F F F"
C        1.06530000       0.90210000       0.08670000
O        0.79320000      -0.43270000      -0.28060000
C       -0.10350000      -0.53690000      -1.36350000
C       -0.25150000      -2.00810000      -1.72610000
N        0.94920000      -2.57150000      -2.31750000
C        2.17750000      -2.75020000      -1.77460000
C        2.91410000      -3.30980000      -2.79040000
N        2.11710000      -3.44440000      -3.88600000
N        0.92820000      -2.99770000      -3.60040000
H        1.52540000       1.46460000      -0.73960000
H        0.15100000       1.43010000       0.39820000
H        1.76100000       0.87280000       0.92800000
H       -1.09340000      -0.13450000      -1.09100000
H        0.26160000       0.03050000      -2.23430000
H       -0.51710000      -2.57650000      -0.82900000
H       -1.04000000      -2.13530000      -2.47010000
H        2.40010000      -2.45650000      -0.76430000
H        3.94710000      -3.61780000      -2.79830000
