19
Properties=species:S:1:pos:R:3 gdb_83783=T pbc="F F F"
O        0.07930000       1.48770000       0.03960000
C       -0.04630000       0.08880000       0.02730000
C        0.16950000      -0.68390000       1.35170000
O       -0.38090000       0.06480000       2.43360000
C       -1.73310000       0.49320000       2.18450000
C       -2.37900000      -0.43210000       1.16220000
C       -2.10890000      -1.89700000       1.60630000
C       -0.80330000      -1.79600000       0.80800000
C       -1.40760000      -0.63940000      -0.06640000
H        0.18930000       1.74490000       0.96230000
H        0.60200000      -0.31330000      -0.76210000
H        1.17790000      -0.96490000       1.65970000
H       -2.25650000       0.44880000       3.14620000
H       -1.74580000       1.53160000       1.83140000
H       -3.40580000      -0.13220000       0.94550000
H       -2.05310000      -2.09450000       2.68120000
H       -2.79760000      -2.60680000       1.14050000
H       -0.31210000      -2.67820000       0.39600000
H       -1.89000000      -0.79320000      -1.03200000
