16
Properties=species:S:1:pos:R:3 gdb_123795=T pbc="F F F"
C       -0.38310000       1.07850000      -0.21550000
C        1.05440000       1.11650000       0.23350000
C        0.37490000      -0.20530000      -0.00310000
N        0.06560000      -1.00050000       1.14900000
C       -1.02810000      -1.79190000       1.22840000
N       -1.27010000      -2.71050000       2.13310000
C       -2.50790000      -3.13890000       1.74120000
N       -3.02030000      -2.56590000       0.68810000
O       -2.00220000      -1.63550000       0.32660000
H       -1.14540000       1.32570000       0.51300000
H       -0.62120000       1.35440000      -1.23570000
H        1.81770000       1.42300000      -0.47200000
H        1.24910000       1.39500000       1.26310000
H        0.66010000      -0.76290000      -0.89300000
H        0.82090000      -1.28600000       1.75370000
H       -3.05360000      -3.91380000       2.26170000
