15
Properties=species:S:1:pos:R:3 gdb_32170=T pbc="F F F"
N        0.35660000       1.08920000      -0.70110000
C       -0.18780000       0.34300000       0.41780000
C       -1.50950000      -0.37470000       0.20830000
N       -1.99580000      -1.05910000       1.25720000
C       -3.15230000      -1.66940000       1.02630000
N       -3.83700000      -1.65500000      -0.11720000
C       -3.24890000      -0.94120000      -1.08080000
O       -3.86560000      -0.87250000      -2.25950000
N       -2.09580000      -0.28290000      -0.98390000
H        0.46420000       0.46680000      -1.49750000
H       -0.32540000       1.77800000      -1.00710000
H        0.53850000      -0.41000000       0.74900000
H       -0.31640000       1.00950000       1.27990000
H       -3.58760000      -2.23750000       1.84600000
H       -4.67780000      -1.39290000      -2.17580000
