14
Properties=species:S:1:pos:R:3 gdb_3044=T pbc="F F F"
N       -0.31080000       0.99970000       0.33660000
C       -0.47430000      -0.25030000       0.36800000
O       -0.60360000      -0.93390000      -0.79360000
C       -0.85460000      -2.33190000      -0.67980000
C       -2.28920000      -2.62360000      -0.32280000
C       -2.65120000      -3.82580000       0.43700000
O       -2.61720000      -2.54570000       1.06870000
H       -0.21500000       1.35810000       1.28460000
H       -0.52590000      -0.88720000       1.25910000
H       -0.61590000      -2.74950000      -1.66230000
H       -0.18950000      -2.78960000       0.06430000
H       -3.03130000      -2.17550000      -0.98350000
H       -3.64060000      -4.26170000       0.31140000
H       -1.87360000      -4.52210000       0.74870000
