22
Properties=species:S:1:pos:R:3 gdb_7546=T pbc="F F F"
C        0.15660000       1.58290000      -0.05920000
C        0.36890000       0.06710000      -0.05710000
C        0.25290000      -0.54400000       1.34850000
C        0.52660000      -2.03880000       1.37810000
C       -0.53960000      -2.91300000       0.74530000
O        1.87490000      -2.42130000       1.03670000
C        1.42450000      -2.65710000       2.37670000
C        2.14950000      -1.94790000       3.49180000
H        0.89330000       2.08740000       0.57610000
H        0.25010000       1.99620000      -1.06830000
H       -0.83830000       1.84670000       0.31740000
H       -0.35830000      -0.40100000      -0.73130000
H        1.36060000      -0.17330000      -0.45710000
H        0.94940000      -0.02260000       2.01160000
H       -0.75350000      -0.36270000       1.74970000
H       -0.69610000      -2.64730000      -0.30480000
H       -0.24670000      -3.96500000       0.78490000
H       -1.49650000      -2.79730000       1.26630000
H        1.23670000      -3.71400000       2.58610000
H        2.35670000      -0.90390000       3.25120000
H        1.56330000      -1.98690000       4.41660000
H        3.10790000      -2.44200000       3.68420000
