17
Properties=species:S:1:pos:R:3 gdb_16751=T pbc="F F F"
C       -0.20950000       1.39760000      -0.26470000
N       -0.14980000      -0.05490000      -0.22410000
C        0.76320000      -0.65610000      -0.84470000
C        0.94340000      -2.16790000      -0.89810000
C        2.02490000      -2.37600000      -1.93980000
C        1.77320000      -1.80290000      -3.32370000
C        2.50690000      -0.99730000      -2.29140000
O        1.75060000      -0.03710000      -1.58420000
H        0.22940000       1.81150000       0.65200000
H        0.31350000       1.84000000      -1.12050000
H       -1.25850000       1.70920000      -0.28520000
H        1.26600000      -2.53160000       0.08320000
H       -0.00840000      -2.65320000      -1.12780000
H        2.71400000      -3.20400000      -1.83220000
H        2.35110000      -2.21390000      -4.14420000
H        0.76700000      -1.49010000      -3.58560000
H        3.54380000      -0.70690000      -2.40290000
