18
Properties=species:S:1:pos:R:3 gdb_23135=T pbc="F F F"
C       -0.11720000       1.32900000      -0.29390000
O       -0.11270000      -0.08750000      -0.21960000
C       -1.32370000      -0.62110000       0.24670000
O       -2.38820000      -0.43490000      -0.66140000
C       -2.30440000      -1.47020000      -1.65130000
C       -1.84280000      -2.72670000      -0.89070000
C       -1.17630000      -2.12720000       0.32050000
N       -0.61970000      -2.69220000       1.31050000
O       -0.62380000      -4.08640000       1.16420000
H        0.87060000       1.63100000      -0.64770000
H       -0.88230000       1.69470000      -0.98840000
H       -0.29610000       1.77720000       0.69500000
H       -1.61820000      -0.14740000       1.19190000
H       -3.29240000      -1.56690000      -2.10500000
H       -1.58230000      -1.19340000      -2.42910000
H       -2.68400000      -3.35470000      -0.57810000
H       -1.15900000      -3.36150000      -1.46020000
H       -0.18900000      -4.37940000       1.97250000
