15
Properties=species:S:1:pos:R:3 gdb_128198=T pbc="F F F"
C        0.01800000       1.49580000       0.00910000
N       -0.04910000       0.04740000       0.00350000
C       -1.18590000      -0.69730000       0.01110000
C       -1.19840000      -2.06450000       0.00820000
C       -2.42880000      -2.79860000       0.01600000
O       -2.58340000      -3.99070000       0.01470000
O       -3.61330000      -2.01460000       0.02700000
N       -3.61310000      -0.64950000       0.03010000
C       -2.47820000      -0.04070000       0.02260000
H        1.06850000       1.79030000       0.00030000
H       -0.45970000       1.93490000      -0.87500000
H       -0.44300000       1.92770000       0.90550000
H        0.82100000      -0.45740000      -0.00260000
H       -0.28820000      -2.65270000      -0.00010000
H       -2.56070000       1.04020000       0.02580000
