21
Properties=species:S:1:pos:R:3 gdb_115669=T pbc="F F F"
C       -0.30170000       1.45550000       0.64250000
C        0.03720000       0.20190000      -0.14340000
O        1.13810000       0.02290000      -0.61710000
C       -1.07070000      -0.82530000      -0.28590000
C       -0.90620000      -1.92680000      -1.36010000
C       -1.38150000      -2.98580000      -0.33270000
C       -1.14980000      -1.95930000       0.81550000
C        0.13060000      -2.20100000       1.61230000
O        0.00870000      -3.32870000       2.46580000
H        0.59930000       2.04260000       0.82420000
H       -1.02020000       2.06000000       0.07570000
H       -0.78530000       1.20170000       1.59240000
H       -2.03700000      -0.31570000      -0.34870000
H       -1.49570000      -1.81450000      -2.27230000
H        0.14630000      -2.03370000      -1.62990000
H       -2.43630000      -3.24620000      -0.44960000
H       -0.80760000      -3.91770000      -0.28440000
H       -1.97810000      -1.85130000       1.52060000
H        0.99400000      -2.29570000       0.93750000
H        0.33390000      -1.35250000       2.27510000
H       -0.09580000      -4.10740000       1.90980000
