18
Properties=species:S:1:pos:R:3 gdb_92758=T pbc="F F F"
C       -0.37590000       1.54350000      -0.10040000
C        0.09060000       0.10250000       0.02140000
C        1.01790000      -0.38930000      -1.12630000
N        2.30450000      -0.68400000      -0.48100000
C        2.13420000      -0.45830000       0.76130000
O        0.93200000      -0.03400000       1.20260000
C        3.20850000      -0.63540000       1.80670000
C        4.54470000      -1.12280000       1.29800000
O        2.97550000      -0.39300000       2.96630000
H        0.47770000       2.21390000      -0.24220000
H       -1.04360000       1.64840000      -0.96200000
H       -0.91740000       1.85550000       0.79630000
H       -0.76450000      -0.56360000       0.17130000
H        0.64040000      -1.28960000      -1.62260000
H        1.15700000       0.37310000      -1.90170000
H        4.93660000      -0.43400000       0.54370000
H        5.23780000      -1.20680000       2.13540000
H        4.42870000      -2.08970000       0.79930000
