23
Properties=species:S:1:pos:R:3 gdb_58566=T pbc="F F F"
C        0.07320000       1.58430000       0.17060000
C       -0.12440000       0.08140000      -0.04840000
O       -1.50250000      -0.22600000      -0.25890000
C        0.63890000      -0.47990000      -1.25520000
C        0.20110000       0.15710000      -2.57250000
C        2.16820000      -0.55820000      -1.02190000
O        2.14790000      -1.99280000      -0.95420000
C        0.74120000      -2.04300000      -1.30190000
C       -0.04940000      -2.94030000      -0.37150000
H        1.13230000       1.83950000       0.27890000
H       -0.34400000       2.16150000      -0.65830000
H       -0.43260000       1.90070000       1.09020000
H        0.24020000      -0.44080000       0.85060000
H       -2.00440000       0.12540000       0.48320000
H        0.43470000       1.22630000      -2.60320000
H        0.71530000      -0.31390000      -3.41590000
H       -0.87670000       0.04270000      -2.71550000
H        2.77450000      -0.18850000      -1.86040000
H        2.54740000      -0.11220000      -0.09280000
H        0.62220000      -2.40600000      -2.33400000
H        0.06660000      -2.64320000       0.67390000
H       -1.11180000      -2.91350000      -0.62610000
H        0.31290000      -3.96890000      -0.46970000
