14
Properties=species:S:1:pos:R:3 gdb_132159=T pbc="F F F"
N        0.09950000       1.40280000       0.14360000
C       -0.00070000       0.01490000       0.03680000
C       -1.16770000      -0.69070000       0.00950000
C       -1.21240000      -2.14350000      -0.00720000
O       -2.23680000      -2.81560000      -0.02340000
C        0.13130000      -2.75000000      -0.03130000
F        0.20470000      -4.07730000      -0.07710000
C        1.26290000      -2.01980000      -0.01200000
N        1.20190000      -0.64100000       0.01280000
H        0.73820000       1.82270000      -0.52150000
H       -0.80090000       1.85910000       0.09680000
H       -2.11510000      -0.16530000      -0.01630000
H        2.24820000      -2.46590000      -0.02450000
H        2.03740000      -0.11940000       0.22150000
