16
Properties=species:S:1:pos:R:3 gdb_33699=T pbc="F F F"
C        0.02870000      -1.17340000      -0.02710000
C        0.02570000       0.02840000       0.01240000
C        0.02780000       1.46600000       0.08030000
C       -0.89650000       2.17370000       1.06080000
C       -0.70470000       3.46330000       0.78850000
C        0.31480000       3.42850000      -0.32690000
C        1.35460000       2.30910000      -0.03130000
C        1.34320000       2.01040000      -1.53230000
N       -0.14470000       2.27400000      -1.27450000
H        0.02610000      -2.23480000      -0.06640000
H       -1.55380000       1.68420000       1.76370000
H       -1.16810000       4.34030000       1.21600000
H        0.61600000       4.34400000      -0.83520000
H        2.18500000       2.31930000       0.68570000
H        1.79790000       2.74590000      -2.20080000
H        1.55670000       0.99110000      -1.85920000
