20
Properties=species:S:1:pos:R:3 gdb_79894=T pbc="F F F"
C       -0.20700000       1.59930000       0.07520000
C        0.00650000       0.09990000      -0.01620000
C        0.82330000      -0.59760000      -1.13020000
C        2.07390000      -0.06880000      -0.39220000
C        3.39500000      -0.80550000      -0.51470000
O        3.33640000      -2.13530000      -0.04320000
C        2.07360000      -2.74760000      -0.20270000
C        0.92280000      -1.76360000      -0.12110000
N        1.17260000      -0.52980000       0.78520000
H        0.65130000       2.19600000      -0.24050000
H       -1.05820000       1.88530000      -0.55180000
H       -0.44630000       1.87540000       1.10730000
H       -0.93160000      -0.41060000       0.23380000
H        0.63000000      -0.64100000      -2.20950000
H        2.24820000       1.00800000      -0.41270000
H        3.72370000      -0.76690000      -1.56920000
H        4.16210000      -0.30460000       0.08600000
H        2.00860000      -3.29000000      -1.16330000
H        1.99180000      -3.48950000       0.59920000
H       -0.01400000      -2.27900000       0.11680000
