16
Properties=species:S:1:pos:R:3 gdb_11775=T pbc="F F F"
N        0.01820000      -1.15530000      -0.02500000
C       -0.00040000       0.00110000      -0.02380000
C       -0.00390000       1.44630000       0.00180000
C       -0.27630000       2.28300000       1.28970000
N        0.44450000       3.40350000       0.57490000
C        1.29440000       2.31020000      -0.03180000
C       -0.50590000       3.64910000      -0.54970000
C       -0.87980000       2.20060000      -1.02380000
H       -1.31450000       2.48810000       1.56230000
H        0.29460000       1.94830000       2.15690000
H        2.05790000       1.97880000       0.67350000
H        1.73630000       2.54090000      -1.00420000
H       -1.36700000       4.21280000      -0.18490000
H       -0.01070000       4.23620000      -1.32600000
H       -0.58390000       1.98790000      -2.05350000
H       -1.94040000       1.96450000      -0.91220000
