27
Properties=species:S:1:pos:R:3 gdb_122127=T pbc="F F F"
C        0.14160000       1.52680000      -0.14120000
C        0.04040000      -0.00190000      -0.17520000
C       -1.37880000      -0.55930000       0.06450000
C       -2.28420000      -0.32480000      -1.16300000
C       -3.78570000      -0.45860000      -0.88730000
C       -1.33340000      -2.05470000       0.44380000
C       -0.84020000      -2.33890000       1.86700000
C       -0.81710000      -3.82590000       2.19570000
O       -0.34930000      -3.97490000       3.52870000
H        1.17250000       1.85480000      -0.30870000
H       -0.47920000       2.00170000      -0.90750000
H       -0.17680000       1.91900000       0.83120000
H        0.40590000      -0.37630000      -1.14180000
H        0.72220000      -0.40800000       0.58050000
H       -1.81660000      -0.01100000       0.91320000
H       -2.09660000       0.67740000      -1.56480000
H       -1.98920000      -1.02580000      -1.95650000
H       -4.36900000      -0.27200000      -1.79470000
H       -4.05440000      -1.45680000      -0.52760000
H       -4.11130000       0.26320000      -0.12980000
H       -2.33500000      -2.48860000       0.33400000
H       -0.69700000      -2.58210000      -0.28190000
H        0.16960000      -1.94310000       2.02330000
H       -1.48770000      -1.83430000       2.59480000
H       -1.82880000      -4.24900000       2.07950000
H       -0.16210000      -4.35400000       1.48280000
H       -0.33610000      -4.91290000       3.73940000
