13
Properties=species:S:1:pos:R:3 gdb_20316=T pbc="F F F"
C       -0.38560000      -0.80310000      -0.98250000
C       -0.08250000       0.06810000      -0.21260000
C        0.29330000       1.12820000       0.71610000
C        1.51000000       1.89790000       0.28350000
C        2.30460000       1.75670000      -0.82820000
N        3.24070000       2.72360000      -0.67850000
N        3.05030000       3.42740000       0.45120000
N        2.00060000       2.92650000       1.03490000
H       -0.66580000      -1.57700000      -1.65340000
H       -0.54580000       1.82440000       0.84260000
H        0.47310000       0.70200000       1.71150000
H        2.27570000       1.08100000      -1.66490000
H        4.01320000       2.95800000      -1.28110000
