19
Properties=species:S:1:pos:R:3 gdb_37137=T pbc="F F F"
C       -0.01850000       1.54430000      -0.04450000
C        1.48520000       1.95660000       0.00230000
C        2.12740000       0.83930000       0.78980000
N        1.41870000       0.43170000       2.00500000
C        1.19610000      -0.35890000       0.79240000
C       -0.04680000      -0.01450000       0.00650000
C        2.37410000      -1.26180000       0.47110000
N        2.95880000      -0.77160000      -0.80400000
C        3.29230000      -0.08040000       0.46840000
H       -0.52870000       1.94280000       0.83540000
H       -0.52860000       1.93890000      -0.92790000
H        1.91760000       1.95880000      -1.00370000
H        1.62140000       2.95270000       0.43430000
H        2.03780000      -0.04810000       2.65290000
H       -0.97760000      -0.39110000       0.44150000
H        0.05570000      -0.43680000      -0.99850000
H        2.56150000      -2.27600000       0.80640000
H        3.74500000      -1.38340000      -1.03430000
H        4.32210000      -0.01080000       0.80120000
