18
Properties=species:S:1:pos:R:3 gdb_109750=T pbc="F F F"
C        0.04810000       1.20670000       0.56380000
N       -0.18220000       0.23090000      -0.50240000
H       -0.01500000       0.63560000      -1.41710000
H        0.69760000      -1.25290000      -0.18140000
C       -1.48700000      -0.38150000      -0.46120000
C       -1.74360000      -1.50190000      -1.41760000
O       -0.72440000      -1.77740000      -2.32430000
C       -1.58540000      -1.81670000       0.06820000
C       -0.40320000      -2.60860000       0.56750000
O       -0.55810000      -3.62050000       1.20410000
O        0.80830000      -2.14630000       0.24300000
H        1.03400000       1.65920000       0.43280000
H       -0.70730000       2.00680000       0.58730000
H        0.03370000       0.69420000       1.53010000
H       -2.32350000       0.27630000      -0.22130000
H       -2.75220000      -1.59820000      -1.81750000
H       -0.59660000      -2.73090000      -2.37390000
H       -2.49710000      -2.09050000       0.58470000
