20
Properties=species:S:1:pos:R:3 gdb_119515=T pbc="F F F"
O       -0.17300000       1.53080000       0.03640000
C        0.04180000       0.12940000      -0.02390000
C       -1.32660000      -0.54450000       0.06220000
C       -1.26240000      -2.04090000       0.02330000
N       -2.32400000      -2.89670000       0.61230000
C       -0.90760000      -3.04760000       1.04690000
C       -0.15070000      -3.90540000      -0.00740000
C       -1.03080000      -4.30240000      -1.16240000
C       -0.52670000      -2.88540000      -1.07350000
H        0.67930000       1.96990000      -0.03630000
H        0.54530000      -0.15590000      -0.96060000
H        0.67580000      -0.21760000       0.80730000
H       -1.80730000      -0.22060000       0.99370000
H       -1.95050000      -0.16960000      -0.75990000
H       -2.79330000      -2.33820000       1.32510000
H       -0.63050000      -2.92900000       2.08700000
H        0.81660000      -4.35240000       0.18080000
H       -0.53260000      -4.90380000      -1.91700000
H       -2.07780000      -4.52620000      -1.00660000
H        0.10860000      -2.44240000      -1.82990000
