16
Properties=species:S:1:pos:R:3 gdb_54111=T pbc="F F F"
O        0.06770000       1.39320000       0.00320000
C       -0.02590000       0.01850000      -0.01360000
C       -0.23310000      -0.70710000       1.36640000
C       -1.63960000      -0.05340000       1.43960000
C       -1.46930000      -0.60610000      -0.00140000
N       -0.82040000      -1.86300000       0.56560000
H        0.38410000      -2.22840000      -0.55080000
H       -1.49210000      -2.38030000       1.13450000
C        1.02200000      -0.53950000      -1.00170000
O        1.08810000      -1.84790000      -1.15930000
O        1.73530000       0.24390000      -1.58960000
H        0.78320000       1.59210000      -0.62820000
H        0.49600000      -0.87690000       2.15920000
H       -2.36870000      -0.58390000       2.05940000
H       -1.69190000       1.02650000       1.56660000
H       -2.19270000      -0.65710000      -0.81560000
