16
Properties=species:S:1:pos:R:3 gdb_3551=T pbc="F F F"
C       -0.03520000       1.60480000       0.03820000
C        0.10660000       0.08990000      -0.01190000
C        0.86790000      -0.61440000      -1.12420000
C        2.30670000      -0.74290000      -0.73130000
C        2.50330000      -0.12880000       0.64160000
C        1.08800000      -0.67530000       0.91020000
N        1.29770000      -1.73820000      -0.22170000
H        0.92660000       2.11200000      -0.07840000
H       -0.69300000       1.95800000      -0.76340000
H       -0.47430000       1.92620000       0.98940000
H       -0.87680000      -0.38550000       0.07880000
H        0.53700000      -0.81160000      -2.13830000
H        3.06670000      -1.03700000      -1.44660000
H        3.24930000      -0.69090000       1.20950000
H        2.69450000       0.94390000       0.74490000
H        0.78730000      -1.00270000       1.90380000
