21
Properties=species:S:1:pos:R:3 gdb_78748=T pbc="F F F"
C       -0.03460000       1.49530000      -0.01460000
C       -0.00460000      -0.02900000      -0.02630000
C        0.73360000      -0.61410000      -1.23230000
C        1.96730000      -0.90990000      -0.38280000
C        1.11500000      -0.64450000       0.88820000
C        0.70930000      -2.03370000       1.40690000
C        0.48460000      -2.86450000       0.11430000
C        1.18890000      -2.04540000      -0.97030000
O        1.77050000      -2.71400000      -2.04930000
H        0.96680000       1.90770000      -0.18130000
H       -0.69130000       1.88670000      -0.79970000
H       -0.40030000       1.87240000       0.94710000
H       -1.01500000      -0.41880000       0.15960000
H        0.69970000      -0.24260000      -2.25190000
H        3.01570000      -0.71890000      -0.56680000
H        1.51320000       0.02890000       1.64870000
H        1.52500000      -2.46550000       1.99710000
H       -0.17710000      -1.99380000       2.04830000
H        0.94500000      -3.85490000       0.17370000
H       -0.57970000      -3.01160000      -0.10330000
H        1.06880000      -2.95430000      -2.66390000
