19
Properties=species:S:1:pos:R:3 gdb_82365=T pbc="F F F"
C        0.04120000       1.58010000      -0.04040000
C        0.07160000       0.05040000       0.00940000
C        0.70480000      -0.60770000      -1.20200000
O        2.14130000      -0.57330000      -1.18480000
C        1.47240000      -1.78460000      -0.79090000
C        1.37280000      -1.94900000       0.71150000
C        0.85850000      -0.57640000       1.22110000
C        2.00190000       0.31180000       1.68820000
O        1.90130000       1.10380000       2.59130000
H        1.03720000       1.98850000      -0.23500000
H       -0.62580000       1.92460000      -0.83690000
H       -0.31080000       1.99880000       0.90630000
H       -0.96140000      -0.31920000       0.07040000
H        0.24950000      -0.50860000      -2.18470000
H        1.64120000      -2.64010000      -1.43960000
H        0.65620000      -2.74490000       0.94350000
H        2.32870000      -2.23260000       1.16600000
H        0.18760000      -0.67630000       2.07760000
H        2.95530000       0.18530000       1.13350000
