18
Properties=species:S:1:pos:R:3 gdb_36784=T pbc="F F F"
N        1.66020000      -0.08300000      -0.79400000
C        0.86490000       0.67040000      -0.42630000
C       -0.15500000       1.63660000       0.03210000
O        0.20260000       2.97790000      -0.17240000
C        1.02100000       3.57050000       0.83330000
C        2.50620000       3.25890000       0.67780000
C        3.22610000       3.86450000      -0.54430000
C        4.04420000       4.64180000       0.50750000
O        3.27700000       4.06970000       1.59390000
H       -1.06960000       1.45690000      -0.54310000
H       -0.37920000       1.42860000       1.08900000
H        0.87330000       4.65010000       0.73310000
H        0.67850000       3.27360000       1.83620000
H        2.70370000       2.19170000       0.83430000
H        3.78460000       3.15850000      -1.15880000
H        2.58910000       4.47510000      -1.18680000
H        5.10380000       4.36820000       0.57520000
H        3.96100000       5.73440000       0.48230000
