20
Properties=species:S:1:pos:R:3 gdb_106165=T pbc="F F F"
O       -0.05320000       1.40990000       0.15580000
C        0.03580000       0.00430000       0.00400000
C       -1.33810000      -0.58930000      -0.10520000
C       -2.40590000      -0.39650000      -1.23520000
C       -2.61090000      -1.93510000      -1.24930000
C       -1.80720000      -2.07220000       0.07220000
C       -2.59350000      -1.56860000       1.29930000
N       -2.35140000      -0.12420000       0.94980000
C       -3.26920000       0.29870000      -0.16680000
H       -0.68780000       1.54330000       0.87370000
H        0.62300000      -0.18930000      -0.90080000
H        0.57050000      -0.45990000       0.85060000
H       -2.23170000       0.11270000      -2.18350000
H       -3.63950000      -2.31090000      -1.25970000
H       -2.06420000      -2.39030000      -2.08030000
H       -1.14780000      -2.93370000       0.18790000
H       -3.65040000      -1.84720000       1.37920000
H       -2.09950000      -1.80320000       2.24750000
H       -3.25530000       1.38910000      -0.25490000
H       -4.30790000      -0.03200000      -0.05190000
