17
Properties=species:S:1:pos:R:3 gdb_26848=T pbc="F F F"
C        0.16370000       1.49940000       0.13170000
C       -0.06350000       0.02210000       0.06260000
C       -1.24090000      -0.64750000      -0.05550000
C       -2.59870000       0.00220000      -0.14310000
C       -1.16200000      -2.08090000      -0.09690000
C        0.01330000      -2.74700000      -0.02370000
C        1.26180000      -2.02940000       0.10130000
O        2.37450000      -2.47820000       0.17630000
O        1.11990000      -0.63300000       0.13640000
H        0.81960000       1.81400000      -0.68700000
H       -0.76380000       2.06680000       0.07540000
H        0.67560000       1.75380000       1.06600000
H       -3.11130000      -0.28970000      -1.06720000
H       -3.23800000      -0.31370000       0.68980000
H       -2.55200000       1.09120000      -0.12510000
H       -2.09010000      -2.63960000      -0.19100000
H        0.07960000      -3.82680000      -0.05460000
