12
Properties=species:S:1:pos:R:3 gdb_5285=T pbc="F F F"
N       -0.13090000       1.32730000       0.01910000
C        0.04480000      -0.02370000       0.01150000
O        1.13220000      -0.57090000       0.00220000
C       -1.20040000      -0.81640000       0.01540000
C       -1.42990000      -2.15510000       0.01120000
N       -2.79530000      -2.38970000       0.01850000
C       -3.31880000      -1.20590000       0.02580000
O       -2.42670000      -0.19170000       0.02590000
H        0.68700000       1.91280000       0.01340000
H       -1.04460000       1.74520000       0.02250000
H       -0.70430000      -2.95140000       0.00330000
H       -4.36310000      -0.93520000       0.03320000
