21
Properties=species:S:1:pos:R:3 gdb_75944=T pbc="F F F"
C        0.18440000       1.65090000       0.01550000
C        0.21800000       0.11380000      -0.01440000
C        0.91270000      -0.38920000      -1.28710000
O        1.05920000       0.31490000      -2.25970000
C        1.39650000      -1.82430000      -1.24100000
C        2.34080000      -2.02340000      -0.04190000
C        1.75160000      -1.44530000       1.21610000
C        0.79610000      -0.51210000       1.25100000
C        0.22370000      -0.02580000       2.55770000
H        1.18340000       2.05820000       0.20080000
H       -0.15380000       2.02870000      -0.95050000
H       -0.48720000       2.01980000       0.79390000
H       -0.82640000      -0.23590000      -0.10240000
H        0.52270000      -2.47600000      -1.10870000
H        1.87210000      -2.06940000      -2.19300000
H        2.54260000      -3.09200000       0.09540000
H        3.31660000      -1.56360000      -0.25490000
H        2.13400000      -1.83700000       2.15640000
H        0.62440000      -0.59520000       3.40030000
H        0.44350000       1.03360000       2.73200000
H       -0.86990000      -0.12290000       2.57000000
