16
Properties=species:S:1:pos:R:3 gdb_30443=T pbc="F F F"
C        0.10080000       1.37310000      -0.15830000
N       -0.03320000      -0.06940000      -0.21890000
C       -1.16220000      -0.59150000      -0.04580000
O       -1.16890000      -2.00950000      -0.12790000
C       -2.31650000      -2.67010000       0.03980000
C       -2.15170000      -4.14820000      -0.07720000
N       -3.45840000      -2.11680000       0.27800000
C       -3.41130000      -0.73570000       0.35120000
N       -2.37840000       0.02080000       0.20970000
H        0.83030000       1.62780000       0.61910000
H        0.51690000       1.72950000      -1.10760000
H       -0.83710000       1.90120000       0.04290000
H       -3.11350000      -4.63740000       0.06740000
H       -1.74430000      -4.40000000      -1.06140000
H       -1.43250000      -4.50200000       0.66820000
H       -4.36750000      -0.25570000       0.55200000
