22
Properties=species:S:1:pos:R:3 gdb_22044=T pbc="F F F"
C        0.16650000       1.45900000      -0.22300000
C        0.00900000      -0.04010000       0.09650000
C       -1.41860000      -0.53010000       0.02060000
N       -2.06660000      -0.70840000      -1.06510000
O       -1.30370000      -0.38380000      -2.19930000
C       -2.16890000      -0.84770000       1.31370000
C       -2.42190000       0.45090000       2.10370000
C       -3.48460000      -1.59310000       1.06800000
O       -1.26570000      -1.68740000       2.05090000
H        1.22080000       1.74680000      -0.16350000
H       -0.19410000       1.68010000      -1.22920000
H       -0.38910000       2.08280000       0.48390000
H        0.59610000      -0.61620000      -0.62630000
H        0.40070000      -0.26400000       1.09010000
H       -1.91050000      -0.59630000      -2.91590000
H       -3.06560000       1.13530000       1.54330000
H       -2.92170000       0.21930000       3.05200000
H       -1.48240000       0.95960000       2.33310000
H       -3.29840000      -2.52880000       0.53840000
H       -3.95740000      -1.82040000       2.03080000
H       -4.18020000      -0.99590000       0.47540000
H       -1.67200000      -1.86520000       2.90580000
