19
Properties=species:S:1:pos:R:3 gdb_75109=T pbc="F F F"
C        0.08770000       1.47100000       0.71200000
C        0.00300000       0.11190000       0.06110000
C       -1.12440000      -0.62300000       0.09700000
C       -1.33700000      -1.91340000      -0.64320000
C       -0.46130000      -3.10120000      -0.22380000
O       -0.87430000      -4.23010000      -0.18610000
C        0.98660000      -2.74470000       0.14470000
C        1.62170000      -1.63470000      -0.64270000
C        1.19690000      -0.36120000      -0.64100000
H        0.86740000       1.50010000       1.48240000
H        0.34930000       2.23910000      -0.02680000
H       -0.86080000       1.75580000       1.17410000
H       -1.97720000      -0.24500000       0.65530000
H       -2.37790000      -2.23920000      -0.60590000
H       -1.07560000      -1.76650000      -1.70370000
H        0.91100000      -2.43440000       1.19920000
H        1.57520000      -3.66320000       0.11610000
H        2.51090000      -1.89200000      -1.21170000
H        1.79220000       0.38900000      -1.15950000
