19
Properties=species:S:1:pos:R:3 gdb_37894=T pbc="F F F"
C        0.02780000       1.57320000       0.01620000
C        1.56240000       1.97980000       0.00620000
C        2.13910000       0.58830000      -0.03590000
O        3.33780000      -0.11270000      -0.50770000
C        2.33440000      -1.17240000      -0.14630000
C        1.96890000      -0.41950000       1.14810000
C        0.47060000      -0.50200000       1.43050000
C       -0.03220000      -0.00110000       0.04980000
C        1.19350000      -0.34930000      -0.80700000
H       -0.50900000       2.01170000       0.86230000
H       -0.45150000       1.93980000      -0.89640000
H        1.81530000       2.56470000      -0.88220000
H        1.85320000       2.55460000       0.88940000
H        2.65800000      -2.20180000      -0.30380000
H        2.69970000      -0.40070000       1.95550000
H        0.13600000      -1.51960000       1.65970000
H        0.15630000       0.14690000       2.25440000
H       -1.00780000      -0.38570000      -0.25150000
H        1.16310000      -0.25920000      -1.89200000
