13
Properties=species:S:1:pos:R:3 gdb_970=T pbc="F F F"
C        0.11450000       1.50620000      -0.00240000
C       -0.03650000       0.03100000      -0.03920000
C       -1.11930000      -0.79440000       0.03330000
O       -2.40690000      -0.36330000       0.16790000
C       -0.63760000      -2.14230000      -0.05770000
C        0.71140000      -2.03590000      -0.17950000
O        1.09370000      -0.73770000      -0.17060000
H        0.73500000       1.83420000       0.84010000
H        0.57340000       1.89460000      -0.91950000
H       -0.87280000       1.96190000       0.10390000
H       -2.98760000      -1.12840000       0.19480000
H       -1.21770000      -3.05260000      -0.03480000
H        1.50220000      -2.76100000      -0.27830000
