17
Properties=species:S:1:pos:R:3 gdb_72125=T pbc="F F F"
O       -0.06640000       1.40490000       0.00360000
C       -0.01250000       0.02070000      -0.04460000
C        0.23320000      -0.80860000      -1.33050000
C       -0.35070000      -1.91870000      -0.43780000
O        0.67540000      -2.10720000       0.52660000
C        0.74710000      -0.75050000       1.09380000
C       -0.23110000      -0.76320000       2.24220000
C       -1.45570000      -0.85960000       1.70560000
C       -1.31140000      -0.79540000       0.22340000
H        0.82380000       1.75200000      -0.11900000
H       -0.43450000      -0.49090000      -2.13420000
H        1.25420000      -0.95660000      -1.68950000
H       -0.72970000      -2.87110000      -0.80000000
H        1.78790000      -0.49200000       1.29180000
H        0.04290000      -0.84250000       3.28590000
H       -2.38730000      -1.02490000       2.23230000
H       -2.17500000      -0.54850000      -0.39170000
