21
Properties=species:S:1:pos:R:3 gdb_119997=T pbc="F F F"
C       -0.29720000       1.38780000      -0.06980000
O       -0.22940000      -0.01580000      -0.11010000
C        0.77440000      -0.48590000      -0.98730000
C        0.74470000      -1.99170000      -0.95240000
C        0.01870000      -2.79610000      -2.02080000
O       -0.54940000      -2.14820000      -3.11730000
C        1.52770000      -2.82270000      -1.93720000
O        2.19790000      -2.12530000      -2.95220000
C        2.63640000      -2.98210000      -3.99740000
H        0.64940000       1.83540000       0.27510000
H       -0.53600000       1.81570000      -1.05680000
H       -1.09030000       1.65790000       0.63190000
H        0.59830000      -0.11400000      -2.00710000
H        1.76310000      -0.11130000      -0.67170000
H        0.70530000      -2.39240000       0.05670000
H       -0.56330000      -3.66100000      -1.71990000
H        0.18170000      -1.75000000      -3.60820000
H        2.05510000      -3.70870000      -1.58390000
H        1.79720000      -3.51060000      -4.46900000
H        3.13310000      -2.35280000      -4.73910000
H        3.35290000      -3.72630000      -3.62170000
