17
Properties=species:S:1:pos:R:3 gdb_99838=T pbc="F F F"
N        0.09070000       1.51140000      -0.01620000
C        0.09020000       0.04940000      -0.06360000
C        0.88200000      -0.50050000       1.15260000
N        2.25420000       0.01710000       1.25910000
C        0.16240000      -0.11450000       2.38270000
N       -0.42850000       0.21130000       3.32110000
C        0.90320000      -2.06200000       1.09950000
N        1.94190000      -2.60260000       1.77600000
O        0.05640000      -2.69060000       0.50090000
H       -0.16980000       1.88970000      -0.91990000
H       -0.60550000       1.83890000       0.64740000
H       -0.89910000      -0.42190000      -0.08370000
H        0.62090000      -0.27500000      -0.96490000
H        2.75980000      -0.26250000       0.42060000
H        2.19290000       1.03320000       1.21840000
H        2.60180000      -2.00230000       2.24440000
H        2.01230000      -3.60440000       1.84160000
