15
Properties=species:S:1:pos:R:3 gdb_50879=T pbc="F F F"
N       -0.06330000       1.53990000      -0.12970000
C       -0.01070000       0.28060000      -0.14510000
C       -1.20970000      -0.59930000       0.06990000
C       -2.50930000       0.20580000       0.22350000
C       -3.66320000      -0.66500000       0.43330000
N       -4.56700000      -1.36510000       0.60000000
O        1.11210000      -0.49880000      -0.39620000
C        2.32220000      -0.12080000       0.12160000
O        3.33280000      -0.66330000      -0.18850000
H        0.82420000       1.99180000      -0.34470000
H       -1.27930000      -1.29550000      -0.77320000
H       -1.03250000      -1.22380000       0.95310000
H       -2.42390000       0.90200000       1.06290000
H       -2.67720000       0.82130000      -0.66530000
H        2.22960000       0.69610000       0.85660000
