22
Properties=species:S:1:pos:R:3 gdb_105178=T pbc="F F F"
C        0.13010000       1.49700000      -0.36620000
C        0.03470000       0.10570000       0.26770000
C       -1.36620000      -0.48490000       0.16720000
N       -1.73150000      -1.02290000      -1.17310000
C       -1.61620000      -1.95360000      -0.04330000
C       -0.53990000      -3.01040000      -0.10960000
C       -2.38700000       0.23700000       0.89170000
C       -3.23060000       0.85610000       1.49150000
C       -4.25130000       1.59720000       2.21860000
H        1.14700000       1.89320000      -0.28740000
H       -0.13800000       1.45080000      -1.42610000
H       -0.54820000       2.20110000       0.12510000
H        0.73820000      -0.56780000      -0.22810000
H        0.32070000       0.15080000       1.32530000
H       -2.70790000      -0.81760000      -1.36820000
H       -2.55090000      -2.30440000       0.39190000
H        0.35600000      -2.64460000      -0.61420000
H       -0.26440000      -3.35210000       0.89390000
H       -0.90370000      -3.87760000      -0.67150000
H       -4.97530000       0.92350000       2.69050000
H       -3.80530000       2.20880000       3.01070000
H       -4.80710000       2.27030000       1.55600000
