16
Properties=species:S:1:pos:R:3 gdb_57226=T pbc="F F F"
C       -0.03200000       1.54820000       0.00350000
C        0.00190000      -0.00430000       0.00180000
C        0.74440000      -0.52980000       1.26040000
C       -1.38820000      -0.50830000       0.02740000
N       -2.47850000      -0.88730000       0.07420000
C        0.66410000      -0.49110000      -1.21200000
C        1.24530000      -0.87190000      -2.20150000
C        1.89400000      -1.30360000      -3.31710000
C        2.47050000      -1.68580000      -4.30630000
H        0.99160000       1.92990000      -0.01030000
H       -0.56080000       1.92550000      -0.87350000
H       -0.53690000       1.90750000       0.90380000
H        0.24120000      -0.17500000       2.16340000
H        0.76440000      -1.62090000       1.27160000
H        1.77180000      -0.15810000       1.25280000
H        2.97520000      -2.02350000      -5.17750000
