23
Properties=species:S:1:pos:R:3 gdb_98272=T pbc="F F F"
C       -0.01320000       1.46290000       0.01230000
N        0.06290000       0.01270000      -0.03410000
C        0.71410000      -0.64860000       0.99300000
O        1.34930000      -0.03980000       1.84390000
N        0.62240000      -2.02720000       0.95990000
C       -0.01680000      -2.72900000      -0.13690000
C        1.23510000      -2.78990000       2.05710000
C        0.21340000      -3.69360000       2.75910000
C        2.47340000      -3.56840000       1.59270000
H        0.96690000       1.85640000       0.28220000
H       -0.29340000       1.83780000      -0.97570000
H       -0.73720000       1.83210000       0.75130000
H       -0.70700000      -0.45560000      -0.48210000
H        0.29550000      -2.31810000      -1.10290000
H        0.27870000      -3.77930000      -0.12000000
H       -1.11630000      -2.70130000      -0.08600000
H        1.56370000      -2.02260000       2.75970000
H       -0.15460000      -4.48980000       2.10200000
H        0.67380000      -4.17520000       3.62730000
H       -0.64620000      -3.11340000       3.10720000
H        2.22340000      -4.34760000       0.86330000
H        3.20240000      -2.89270000       1.13730000
H        2.95000000      -4.06260000       2.44550000
