19
Properties=species:S:1:pos:R:3 gdb_60917=T pbc="F F F"
O        0.21980000       1.60870000       0.13240000
C        0.03820000       0.21670000       0.12490000
C        0.51430000      -0.36100000      -1.20360000
O        0.98780000       0.33560000      -2.06720000
C        0.76470000      -0.46210000       1.25730000
C        0.28740000      -1.43570000       2.03490000
C        1.31660000      -1.94220000       3.01560000
C        2.43160000      -0.86550000       2.93590000
C        2.20660000      -0.13390000       1.58830000
H        0.59130000       1.82700000      -0.73750000
H       -1.03460000      -0.03920000       0.19510000
H        0.40230000      -1.45740000      -1.32060000
H       -0.71560000      -1.84560000       1.96900000
H        0.91660000      -2.06020000       4.02880000
H        1.68160000      -2.93470000       2.71430000
H        2.30580000      -0.15450000       3.75810000
H        3.43520000      -1.28790000       3.02550000
H        2.87940000      -0.50630000       0.80140000
H        2.37480000       0.94450000       1.65210000
