20
Properties=species:S:1:pos:R:3 gdb_91032=T pbc="F F F"
C       -0.05210000       1.53890000      -0.01400000
C        0.01330000       0.02930000       0.01120000
C       -1.31340000      -0.68170000       0.37770000
N       -1.10830000      -2.14970000       0.26280000
C       -0.64840000      -1.43210000       1.48060000
C        0.71320000      -0.77300000       1.16500000
C        1.63340000      -1.48640000       0.13950000
C        0.93610000      -0.70840000      -1.03280000
O        0.33150000      -1.44430000      -2.05580000
H        0.95170000       1.97680000      -0.03960000
H       -0.59210000       1.89110000      -0.90170000
H       -0.56670000       1.93670000       0.86880000
H       -2.31300000      -0.26820000       0.30260000
H       -1.99290000      -2.59960000       0.49230000
H       -1.02590000      -1.73860000       2.44890000
H        1.16930000      -0.24910000       2.00530000
H        2.69250000      -1.24440000       0.25960000
H        1.51990000      -2.57050000       0.08010000
H        1.61600000      -0.00150000      -1.51950000
H       -0.24470000      -2.07480000      -1.59650000
