16
Properties=species:S:1:pos:R:3 gdb_16108=T pbc="F F F"
C       -0.07690000      -1.20910000      -0.31290000
C       -0.02960000      -0.02200000      -0.11960000
C        0.01870000       1.38680000       0.11480000
C        0.36350000       2.34650000      -1.03140000
C        1.31380000       2.18700000       0.11780000
O        1.30440000       3.12240000       1.15360000
C       -0.04920000       3.30530000       1.57520000
C       -0.79370000       1.98900000       1.26260000
H       -0.11630000      -2.25610000      -0.48350000
H        0.64360000       1.88260000      -1.96990000
H       -0.21060000       3.26150000      -1.13110000
H        2.28500000       1.72820000      -0.01930000
H       -0.03580000       3.55480000       2.63900000
H       -0.50150000       4.14860000       1.03600000
H       -1.84230000       2.16420000       1.00680000
H       -0.76120000       1.30220000       2.11310000
