21
Properties=species:S:1:pos:R:3 gdb_76806=T pbc="F F F"
C       -0.48530000       1.51620000      -0.03180000
C       -0.07340000       0.05240000       0.05470000
C        1.07080000      -0.49350000      -0.94120000
C        1.51650000       0.32080000      -2.14360000
C        1.96820000      -0.52850000       0.30430000
C        2.92620000      -1.01700000       1.42190000
C        2.02430000       0.18160000       1.93720000
O        2.32180000       0.88410000       0.69150000
C        0.78430000      -0.47930000       1.27250000
H        0.37150000       2.18120000       0.07000000
H       -0.98300000       1.72470000      -0.98600000
H       -1.19840000       1.75100000       0.76650000
H       -0.97050000      -0.56840000      -0.03190000
H        0.80510000      -1.51370000      -1.23850000
H        1.85610000       1.31350000      -1.83890000
H        2.34240000      -0.17470000      -2.66520000
H        0.69590000       0.44140000      -2.85900000
H        2.74760000      -2.01620000       1.82780000
H        3.98580000      -0.77450000       1.32300000
H        2.13770000       0.74080000       2.87060000
H        0.42510000      -1.41230000       1.71090000
