15
Properties=species:S:1:pos:R:3 gdb_30009=T pbc="F F F"
O        0.19050000       1.42940000      -0.21360000
C        0.02920000       0.02800000      -0.05300000
C        0.61360000      -0.54720000       1.25120000
C       -0.28470000      -1.29640000       1.91590000
C       -1.54400000      -1.28040000       1.15670000
C       -1.37900000      -0.49430000       0.04890000
N       -2.56910000      -0.55330000      -0.62280000
C       -3.39340000      -1.35890000       0.13160000
N       -2.80000000      -1.82280000       1.21600000
H       -0.18410000       1.84730000       0.57040000
H        0.55280000      -0.41600000      -0.91030000
H        1.63340000      -0.33520000       1.54360000
H       -0.12180000      -1.82070000       2.84870000
H       -2.82180000      -0.07580000      -1.47200000
H       -4.41360000      -1.55610000      -0.16230000
