18
Properties=species:S:1:pos:R:3 gdb_40596=T pbc="F F F"
C        0.25570000       1.50610000       0.16860000
O        1.04960000       0.46620000      -0.41460000
C       -0.27970000       0.14760000       0.00310000
C       -0.46450000      -0.77720000       1.17280000
C        0.19500000      -2.15700000       1.24530000
C        1.53520000      -1.50020000       1.70240000
C        1.65000000      -2.35570000       2.96640000
C        0.16110000      -2.04860000       2.79870000
N        0.46060000      -0.58330000       2.37260000
H        0.57140000       1.82480000       1.15910000
H       -0.05110000       2.29540000      -0.51570000
H       -0.96960000      -0.03110000      -0.82470000
H       -1.52220000      -0.74840000       1.47150000
H        0.05410000      -3.04970000       0.62670000
H        2.30930000      -1.06660000       1.07570000
H        1.95750000      -3.39600000       2.83360000
H        2.14600000      -1.89050000       3.82230000
H       -0.68360000      -2.25990000       3.45780000
