17
Properties=species:S:1:pos:R:3 gdb_88740=T pbc="F F F"
C       -0.08840000       1.49910000      -0.12320000
C       -0.04960000       0.01740000       0.14860000
O        1.18610000      -0.67110000      -0.07030000
C        0.66390000      -0.63260000       1.26460000
C        1.48500000       0.12890000       2.25070000
O        1.00210000       0.16820000       3.58340000
C        2.22110000      -0.53420000       3.36820000
C        2.21460000      -2.02140000       3.54200000
O        1.22520000      -2.70830000       3.55550000
H        0.80060000       2.01110000       0.24980000
H       -0.15120000       1.67850000      -1.20130000
H       -0.97200000       1.94660000       0.34370000
H       -0.91710000      -0.52910000      -0.22700000
H        0.27620000      -1.57600000       1.64270000
H        1.92190000       1.05870000       1.88850000
H        3.11770000      -0.03470000       3.73850000
H        3.23160000      -2.45940000       3.64930000
