12
Properties=species:S:1:pos:R:3 gdb_25216=T pbc="F F F"
O        0.06110000       0.08580000      -0.79330000
C        0.04250000       1.18270000      -0.30980000
N       -1.17640000       1.87970000      -0.13530000
C       -1.39950000       3.13920000       0.36480000
N       -0.62510000       4.16200000       0.34440000
C        0.62770000       4.11330000      -0.23560000
N        1.49540000       3.17250000      -0.23420000
C        1.26070000       1.91560000       0.29240000
O        1.95630000       1.35150000       1.09490000
H       -1.98540000       1.27960000      -0.25070000
H       -2.39400000       3.26130000       0.79230000
H        0.90940000       5.05170000      -0.71330000
