17
Properties=species:S:1:pos:R:3 gdb_17757=T pbc="F F F"
C       -0.06440000       1.49480000       0.04630000
C        0.11310000       0.01660000      -0.01480000
C        0.29150000      -0.97380000      -1.19940000
C       -0.59970000      -1.92980000      -0.45470000
C        0.88520000      -2.00060000      -0.22510000
C        0.69110000      -0.98280000       0.93360000
C        1.30160000      -0.86750000       2.28790000
N       -0.80590000      -0.95410000       0.69920000
H        0.83450000       2.01780000      -0.29950000
H       -0.90670000       1.81510000      -0.57760000
H       -0.27080000       1.80840000       1.07430000
H        0.48170000      -0.84810000      -2.25620000
H       -1.32630000      -2.66230000      -0.78380000
H        1.60250000      -2.78620000      -0.41710000
H        2.37200000      -0.64090000       2.22340000
H        0.81440000      -0.06840000       2.85510000
H        1.18360000      -1.79950000       2.85230000
