17
Properties=species:S:1:pos:R:3 gdb_35924=T pbc="F F F"
N       -0.00460000      -1.11580000      -0.22680000
C       -0.01760000       0.03090000      -0.09310000
C        0.00200000       1.49900000       0.00550000
O       -0.71530000       1.86850000       1.16330000
C       -0.69210000       3.27560000       1.37560000
C        0.69880000       3.76170000       1.79150000
C        1.77200000       3.17200000       0.88630000
N        2.20290000       1.80230000       1.21630000
C        1.43450000       2.02540000      -0.00420000
H       -0.50510000       1.89670000      -0.89240000
H       -1.01860000       3.79260000       0.45810000
H       -1.43290000       3.47000000       2.15450000
H        0.72410000       4.85580000       1.74710000
H        0.90350000       3.46460000       2.82430000
H        2.53280000       3.85990000       0.52580000
H        3.18490000       1.66290000       0.99640000
H        1.93000000       1.94320000      -0.96880000
