16
Properties=species:S:1:pos:R:3 gdb_51962=T pbc="F F F"
O        0.73640000       1.11230000       2.03400000
C        0.40190000       1.61270000       0.98010000
N        1.19560000       1.70090000      -0.11690000
C        2.57480000       1.28840000      -0.09590000
C        3.33290000       1.98810000      -1.21070000
O        2.77350000       2.67410000      -2.03810000
C        4.81460000       1.76900000      -1.27850000
C        5.67640000       2.06250000      -0.11250000
O        5.36050000       0.72630000      -0.47070000
H       -0.60040000       2.04880000       0.80300000
H        0.90320000       2.22710000      -0.92850000
H        3.01920000       1.49530000       0.88440000
H        2.69450000       0.20450000      -0.24000000
H        5.23640000       1.87700000      -2.27600000
H        6.70300000       2.37340000      -0.29700000
H        5.23290000       2.42240000       0.81380000
