19
Properties=species:S:1:pos:R:3 gdb_62946=T pbc="F F F"
C       -0.07540000       1.55410000      -0.13940000
C       -0.00720000       0.04000000      -0.01770000
O       -1.28080000      -0.55460000      -0.12790000
C        1.04590000      -0.66850000      -0.90880000
O        2.33630000      -0.17980000      -0.51280000
C        1.73750000      -1.24010000       0.24740000
C        0.75090000      -0.58690000       1.24980000
C        1.36270000       0.36440000       2.26600000
O       -0.09150000      -1.53830000       1.86040000
H        0.92140000       1.99870000      -0.12420000
H       -0.54810000       1.83280000      -1.09040000
H       -0.67250000       1.98250000       0.67150000
H       -1.72590000      -0.13910000      -0.87420000
H        0.93070000      -1.03790000      -1.92240000
H        2.29430000      -2.16490000       0.35700000
H        2.06760000       1.05060000       1.79300000
H        0.58480000       0.94210000       2.77460000
H        1.91330000      -0.20380000       3.02720000
H        0.37490000      -1.87940000       2.63100000
