20
Properties=species:S:1:pos:R:3 gdb_82179=T pbc="F F F"
C        0.14750000       1.59050000       0.02220000
C        0.01060000       0.06490000      -0.01700000
C        0.65080000      -0.59280000      -1.24900000
N        2.09970000      -0.36140000      -1.39920000
C        1.62060000      -1.63120000      -0.81300000
C        1.62830000      -1.65990000       0.71150000
C        1.98050000      -2.93080000       1.43320000
O        2.07730000      -0.43300000       1.30060000
C        0.66540000      -0.64190000       1.17280000
H        1.20510000       1.86250000       0.01960000
H       -0.33160000       2.05090000      -0.84790000
H       -0.31870000       2.00650000       0.92120000
H       -1.05290000      -0.21080000      -0.01190000
H        0.04990000      -0.70680000      -2.14680000
H        2.35920000      -0.52760000      -2.36950000
H        1.76980000      -2.56010000      -1.35340000
H        3.02990000      -3.19560000       1.26250000
H        1.82980000      -2.81620000       2.50940000
H        1.36220000      -3.76380000       1.08090000
H        0.12570000      -0.71540000       2.11660000
