12
Properties=species:S:1:pos:R:3 gdb_125469=T pbc="F F F"
C       -0.01270000       1.43650000       0.06990000
C       -0.01330000      -0.03910000      -0.06150000
N       -0.20530000      -0.74150000      -1.15190000
C       -0.09890000      -2.03130000      -0.69380000
C        0.15040000      -2.03810000       0.64400000
O        0.21440000      -0.75880000       1.09590000
N        0.25480000      -3.29870000       1.09090000
N        0.09050000      -4.09910000       0.13960000
O       -0.16520000      -3.24950000      -1.15560000
H        0.95130000       1.79040000       0.44910000
H       -0.20270000       1.87900000      -0.90750000
H       -0.78470000       1.76240000       0.77420000
