18
Properties=species:S:1:pos:R:3 gdb_28512=T pbc="F F F"
N       -0.00120000       1.42520000       0.12350000
C       -0.00120000       0.02090000       0.04260000
C       -1.19560000      -0.70170000       0.09070000
C       -1.16880000      -2.09460000       0.05900000
C        0.02720000      -2.79960000      -0.00130000
N        0.10380000      -4.21850000       0.01390000
C        1.23590000      -2.07560000      -0.02310000
N        2.43570000      -2.79900000      -0.10730000
C        1.20780000      -0.68280000      -0.01210000
H        0.79250000       1.85620000      -0.33060000
H       -0.85880000       1.84430000      -0.20950000
H       -2.14480000      -0.17780000       0.14240000
H       -2.10540000      -2.64630000       0.07660000
H       -0.81520000      -4.64300000      -0.00920000
H        0.64000000      -4.57110000      -0.77400000
H        2.39160000      -3.66150000       0.42450000
H        3.24960000      -2.25970000       0.15550000
H        2.14660000      -0.13410000      -0.02670000
