22
Properties=species:S:1:pos:R:3 gdb_93786=T pbc="F F F"
C       -0.14730000       1.55830000       0.03860000
C       -0.00440000       0.03690000      -0.01620000
C        0.64820000      -0.44640000      -1.31200000
C        0.94450000      -1.94530000      -1.23090000
C        1.92040000      -2.26510000      -0.08470000
C        3.39350000      -2.00780000      -0.45420000
C        1.60240000      -1.51630000       1.21320000
O        2.10080000      -1.84930000       2.27500000
N        0.77970000      -0.42620000       1.12720000
H        0.83270000       2.04170000      -0.02510000
H       -0.76660000       1.91310000      -0.79080000
H       -0.62550000       1.87760000       0.97120000
H       -1.01500000      -0.40230000       0.03520000
H       -0.02110000      -0.22580000      -2.14980000
H        1.57330000       0.11810000      -1.48310000
H        0.00130000      -2.48390000      -1.07250000
H        1.35490000      -2.31060000      -2.17880000
H        1.83370000      -3.32440000       0.17920000
H        3.56310000      -0.96640000      -0.74740000
H        4.03500000      -2.22610000       0.40250000
H        3.69430000      -2.64700000      -1.29030000
H        0.59180000      -0.00120000       2.02540000
