18
Properties=species:S:1:pos:R:3 gdb_47735=T pbc="F F F"
O        0.04020000       0.06410000       0.41870000
C        0.01760000       1.23400000       0.09890000
C       -1.30010000       1.96700000      -0.14770000
O       -1.20650000       3.05170000      -1.04440000
C       -0.17620000       3.96520000      -0.69570000
C        1.19280000       3.30590000      -0.85860000
C        1.27310000       2.05460000      -0.00370000
C        2.12590000       1.99040000       1.23440000
N        2.53650000       1.31130000       0.01190000
H       -2.02770000       1.25980000      -0.55200000
H       -1.66840000       2.29980000       0.84120000
H       -0.28510000       4.81950000      -1.36850000
H       -0.31710000       4.32450000       0.33780000
H        1.32870000       3.03400000      -1.91150000
H        1.99630000       4.00150000      -0.59530000
H        2.70890000       2.86830000       1.50130000
H        1.76560000       1.39280000       2.06710000
H        2.30210000       0.32090000       0.09560000
