17
Properties=species:S:1:pos:R:3 gdb_13389=T pbc="F F F"
C        0.57810000       1.38020000       0.25180000
O        0.75740000      -0.01640000       0.19880000
C       -0.25180000      -0.72850000       0.87450000
C        0.08830000      -2.20860000       0.75640000
C        1.36330000      -2.63550000       1.52920000
N        0.87720000      -3.51130000       2.61260000
C       -0.37030000      -3.61730000       2.43200000
O       -0.96830000      -2.97000000       1.39870000
H        0.58660000       1.75260000       1.28790000
H        1.40610000       1.83640000      -0.29570000
H       -0.37070000       1.68610000      -0.21580000
H       -0.29630000      -0.44350000       1.93990000
H       -1.24330000      -0.53180000       0.43590000
H        0.11320000      -2.49420000      -0.29840000
H        2.07170000      -3.18550000       0.90210000
H        1.89560000      -1.77310000       1.94180000
H       -1.04970000      -4.20250000       3.04190000
