16
Properties=species:S:1:pos:R:3 gdb_74549=T pbc="F F F"
N       -0.05560000       1.27650000      -0.30550000
C       -0.06660000      -0.06440000      -0.00590000
C       -1.11560000      -0.89130000       0.24990000
C       -0.47840000      -2.20330000       0.01140000
N       -0.59970000      -2.91790000      -1.04040000
C        0.78650000      -3.08840000      -1.53640000
C        1.62680000      -2.20190000      -0.60240000
C        1.23580000      -0.83780000       0.04980000
N        0.86300000      -2.13150000       0.62840000
H        0.78790000       1.77990000      -0.07450000
H       -0.89430000       1.79270000      -0.08580000
H       -2.16650000      -0.66600000       0.14900000
H        1.16230000      -4.12190000      -1.48340000
H        0.80210000      -2.79050000      -2.59060000
H        2.68750000      -2.43000000      -0.50840000
H        2.07230000      -0.31960000       0.52290000
