20
Properties=species:S:1:pos:R:3 gdb_73349=T pbc="F F F"
C       -0.02610000       1.53710000       0.01700000
C        0.01020000       0.01280000       0.00490000
C        0.67790000      -0.61530000      -1.25070000
C        0.16700000      -2.07180000      -1.21750000
N       -1.18450000      -2.02400000      -0.60710000
C       -1.26500000      -1.85940000       0.88480000
C       -0.01020000      -1.67250000       1.67220000
C        0.67920000      -0.62260000       1.22070000
C       -1.36890000      -0.69210000      -0.03060000
H        0.98500000       1.95840000       0.01770000
H       -0.54680000       1.92220000      -0.86700000
H       -0.54300000       1.91310000       0.90570000
H        0.31630000      -0.10190000      -2.15000000
H        1.77050000      -0.54430000      -1.24190000
H        0.07500000      -2.50410000      -2.21750000
H        0.83650000      -2.71480000      -0.63770000
H       -2.12240000      -2.36000000       1.32350000
H        0.29140000      -2.33750000       2.47300000
H        1.66090000      -0.31030000       1.56250000
H       -2.28130000      -0.14440000      -0.25230000
