16
Properties=species:S:1:pos:R:3 gdb_35408=T pbc="F F F"
N       -0.44300000      -1.12790000      -0.50390000
C       -0.24950000      -0.01460000      -0.26070000
C       -0.01580000       1.40190000       0.02140000
N       -0.15830000       1.81630000       1.44480000
C        1.11610000       2.58390000       1.38560000
C        2.35470000       1.83590000       1.92180000
C        2.25000000       0.38930000       1.69450000
N        2.63330000       1.22710000       0.53550000
C        1.43840000       1.98490000       0.01220000
H       -0.63640000       1.98430000      -0.67260000
H       -0.99050000       2.35880000       1.64020000
H        1.06010000       3.65530000       1.57850000
H        3.15160000       2.29580000       2.49720000
H        3.08290000      -0.22510000       2.02150000
H        1.28240000      -0.09660000       1.73890000
H        1.71570000       2.56260000      -0.86700000
