16
Properties=species:S:1:pos:R:3 gdb_88883=T pbc="F F F"
N        0.08570000       0.92130000      -0.96310000
C        0.15330000      -0.08970000      -0.02990000
N        1.15860000      -0.59910000       0.56970000
C        2.49390000      -0.11380000       0.39140000
C        3.56630000      -1.06610000      -0.08750000
C        3.21770000       0.15140000      -0.90950000
O        2.49470000      -0.00200000      -2.10110000
C       -1.15090000      -0.60920000       0.36100000
N       -2.20210000      -0.99950000       0.64100000
H        0.88960000       0.99450000      -1.57570000
H       -0.80190000       1.02440000      -1.43100000
H        2.78330000       0.54290000       1.21050000
H        4.52050000      -1.11210000       0.42520000
H        3.19730000      -2.01200000      -0.47040000
H        3.92380000       0.98170000      -0.92000000
H        3.07630000      -0.36160000      -2.77860000
