19
Properties=species:S:1:pos:R:3 gdb_77480=T pbc="F F F"
C       -0.10890000       1.56120000      -0.04150000
C        0.16300000       0.07150000       0.01540000
O        1.34710000      -0.36580000      -0.73810000
C        1.77910000      -1.20160000       0.35840000
C        2.27260000      -2.57390000       0.04300000
C        2.18120000      -0.27940000       1.46800000
O        2.77820000       0.95890000       1.23050000
C        0.70680000      -0.60480000       1.27130000
O       -0.08310000      -1.22840000       2.21780000
H        0.71140000       2.13600000       0.39180000
H       -0.26790000       1.88170000      -1.07630000
H       -1.02280000       1.78540000       0.51970000
H       -0.70160000      -0.49280000      -0.35810000
H        3.20370000      -2.53120000      -0.53300000
H        2.46950000      -3.12470000       0.96720000
H        1.53350000      -3.12980000      -0.54240000
H        2.59820000      -0.77610000       2.34150000
H        2.74030000       1.08030000       0.27150000
H       -0.12230000      -0.66740000       3.00020000
