16
Properties=species:S:1:pos:R:3 gdb_43018=T pbc="F F F"
O       -0.10060000       0.07790000       0.57650000
C       -0.06300000       1.21650000       0.17850000
C       -1.30090000       2.02330000      -0.18360000
O       -2.03100000       2.47830000       0.96050000
C       -1.30170000       3.44570000       0.19610000
C       -0.04190000       3.99540000       0.86860000
C        1.20430000       3.35040000       0.27210000
C        2.03250000       2.34150000       1.01970000
N        1.11540000       1.93250000      -0.02860000
H       -1.90830000       1.64630000      -1.00410000
H       -1.92940000       4.14390000      -0.35460000
H        0.01150000       5.08190000       0.76350000
H       -0.11730000       3.77350000       1.93790000
H        1.70740000       3.92770000      -0.50180000
H        3.09070000       2.23460000       0.79840000
H        1.74660000       2.10330000       2.04120000
