21
Properties=species:S:1:pos:R:3 gdb_113777=T pbc="F F F"
C       -0.43060000      -0.85930000       3.40940000
C       -0.23630000      -0.86110000       1.90710000
C        0.89000000      -0.07930000       1.32500000
N        0.95460000      -1.55030000       1.36560000
C       -1.46620000      -1.09830000       1.05410000
N       -2.78500000      -1.12150000       1.70830000
C       -2.49030000      -0.06950000       0.71610000
C       -2.50200000       1.33450000       1.27540000
O       -3.80490000       1.70450000       1.69400000
H        0.52150000      -0.66890000       3.91600000
H       -1.14660000      -0.09810000       3.72890000
H       -0.82020000      -1.82450000       3.74880000
H        0.80010000       0.34370000       0.32770000
H        1.51760000       0.49450000       2.00270000
H        1.55790000      -1.84920000       2.12850000
H       -1.27990000      -1.84120000       0.28140000
H       -3.37100000      -1.84760000       1.30750000
H       -2.97110000      -0.16740000      -0.25600000
H       -1.77760000       1.42130000       2.09740000
H       -2.20790000       2.05200000       0.50220000
H       -4.09260000       1.00450000       2.29260000
