18
Properties=species:S:1:pos:R:3 gdb_87536=T pbc="F F F"
C       -0.03130000       1.56940000      -0.06980000
C       -0.05910000       0.06980000       0.09170000
N        1.21180000      -0.64260000      -0.12850000
C        0.63310000      -0.61950000       1.20910000
C        1.32570000      -0.12990000       2.47500000
C        0.30390000       0.00060000       3.54810000
C        0.82650000      -1.39600000       3.23910000
C        0.24360000      -1.89500000       1.94640000
O       -0.15100000      -2.95950000       1.55350000
H        0.89790000       1.98360000       0.33010000
H       -0.09660000       1.84500000      -1.12750000
H       -0.87380000       2.03340000       0.45370000
H       -0.96160000      -0.42530000      -0.26590000
H        1.04560000      -1.55950000      -0.54240000
H        2.31870000       0.29470000       2.51760000
H        0.64480000       0.39120000       4.50150000
H       -0.71870000       0.26700000       3.29630000
H        1.32210000      -1.99470000       3.99190000
