17
Properties=species:S:1:pos:R:3 gdb_25913=T pbc="F F F"
C        0.05390000       1.51950000       0.00280000
C        0.00100000       0.02240000       0.01780000
C       -0.04540000      -0.80550000      -1.06950000
N       -0.07680000      -2.12100000      -0.62870000
C       -0.05840000      -2.12080000       0.76020000
C       -0.01320000      -0.82290000       1.18030000
C       -0.11240000      -3.21890000      -1.51360000
N        0.09350000      -4.43690000      -0.91060000
O       -0.33790000      -3.07930000      -2.69410000
H        0.96010000       1.89690000       0.49100000
H        0.04320000       1.90400000      -1.02070000
H       -0.80010000       1.95850000       0.53170000
H       -0.05330000      -0.60520000      -2.12730000
H       -0.14450000      -3.03640000       1.32070000
H       -0.00220000      -0.49510000       2.20960000
H        0.66870000      -4.48540000      -0.08540000
H        0.20520000      -5.19420000      -1.56640000
