17
Properties=species:S:1:pos:R:3 gdb_51317=T pbc="F F F"
O       -0.52340000       0.12460000       0.02800000
C       -0.14810000       1.26260000       0.10970000
N        1.15720000       1.71550000       0.15980000
C        2.34870000       0.98560000       0.10740000
N        2.40990000      -0.27080000       0.18190000
C        3.70710000      -0.91810000       0.04040000
C        4.78490000      -0.00480000      -0.55380000
C        4.68410000       1.35570000       0.12120000
O        3.36190000       1.89470000      -0.03050000
H       -0.83920000       2.13000000       0.15670000
H        1.29010000       2.71510000       0.18920000
H        4.02120000      -1.28380000       1.02800000
H        3.57260000      -1.80970000      -0.58170000
H        5.78680000      -0.42230000      -0.41130000
H        4.62590000       0.11810000      -1.63100000
H        4.90890000       1.27770000       1.19320000
H        5.35280000       2.09840000      -0.31930000
