18
Properties=species:S:1:pos:R:3 gdb_42465=T pbc="F F F"
N        0.04170000       1.31240000      -0.47420000
C       -0.05560000       0.09840000      -0.07410000
N       -1.25050000      -0.53950000       0.06600000
C       -2.51570000       0.15760000      -0.12440000
C       -3.65440000      -0.82980000      -0.17470000
C       -4.23180000      -1.37930000       1.11150000
C       -5.02820000      -0.41060000       0.27450000
C        1.09730000      -0.73210000       0.24880000
N        2.03640000      -1.35630000       0.50540000
H        1.01510000       1.59150000      -0.56260000
H       -1.26980000      -1.40960000       0.57260000
H       -2.67840000       0.88850000       0.68170000
H       -2.44280000       0.73350000      -1.05210000
H       -3.61040000      -1.51880000      -1.01370000
H       -4.54220000      -2.41770000       1.13600000
H       -3.82270000      -1.01420000       2.04840000
H       -5.15230000       0.59920000       0.65100000
H       -5.88140000      -0.78600000      -0.27850000
