11
Properties=species:S:1:pos:R:3 gdb_132851=T pbc="F F F"
F        0.07190000       0.02680000      -0.22140000
C       -0.07330000       1.32230000      -0.07460000
C       -1.20070000       1.91800000       0.28140000
O       -1.26690000       3.29110000       0.41310000
C       -0.17440000       4.06770000       0.18010000
O       -0.24090000       5.25140000       0.29610000
C        1.10700000       3.35330000      -0.22770000
N        2.14850000       4.01660000      -0.45610000
O        1.08240000       1.97270000      -0.33520000
H       -2.12580000       1.40750000       0.49080000
H        2.92510000       3.40640000      -0.71790000
