17
Properties=species:S:1:pos:R:3 gdb_34132=T pbc="F F F"
C       -0.00690000      -1.18140000       0.04080000
C       -0.02060000       0.02220000       0.03790000
C       -0.03560000       1.45520000       0.03240000
C       -0.71420000       2.40410000       1.05730000
C       -0.05780000       3.34980000       0.02880000
C        1.21870000       2.43490000      -0.02060000
C        1.71510000       2.44310000      -1.45530000
C        0.59580000       2.42860000      -2.18300000
C       -0.51380000       2.41240000      -1.14700000
H        0.00540000      -2.24310000       0.04300000
H       -1.80680000       2.38040000       1.08420000
H       -0.29510000       2.40000000       2.06700000
H       -0.06370000       4.44140000       0.01610000
H        1.92060000       2.43370000       0.81390000
H        2.74750000       2.44600000      -1.77480000
H        0.46900000       2.41650000      -3.25610000
H       -1.56110000       2.38860000      -1.44960000
