13
Properties=species:S:1:pos:R:3 gdb_24890=T pbc="F F F"
O       -0.06510000      -0.06680000       0.00330000
C       -0.00930000       1.14780000       0.00930000
N       -1.16300000       1.94010000       0.02930000
C       -1.15450000       3.31400000       0.03690000
C        0.05840000       3.95190000       0.02410000
N        1.23720000       3.26380000       0.00430000
C        1.20960000       1.96520000      -0.00260000
C       -2.40060000       3.98940000       0.05750000
C       -3.46790000       4.54570000       0.07510000
H       -2.04400000       1.44260000       0.03840000
H        0.10860000       5.03250000       0.02950000
H        2.14930000       1.41830000      -0.01830000
H       -4.40490000       5.04690000       0.09050000
