18
Properties=species:S:1:pos:R:3 gdb_19432=T pbc="F F F"
C       -0.00980000       1.47750000      -0.00470000
N        1.24760000       0.69770000      -0.00090000
C       -0.05240000       0.00030000       0.01600000
C       -0.39090000      -0.84100000       1.24640000
C       -0.28530000      -2.31130000       0.76210000
C       -0.58940000      -2.23690000      -0.72600000
N       -1.79590000      -1.43530000      -1.02790000
C       -0.45000000      -0.82770000      -1.17290000
H       -0.19840000       2.03920000       0.90660000
H       -0.30630000       1.98960000      -0.91700000
H        1.64320000       0.68070000      -0.93930000
H        0.28370000      -0.61490000       2.07420000
H       -1.41460000      -0.62680000       1.56320000
H        0.73330000      -2.69310000       0.89620000
H       -0.96580000      -2.97800000       1.30010000
H       -0.33860000      -3.06900000      -1.37620000
H       -2.13890000      -1.68830000      -1.95160000
H       -0.09380000      -0.55480000      -2.16270000
