20
Properties=species:S:1:pos:R:3 gdb_55784=T pbc="F F F"
N        0.83920000      -0.15980000       0.40680000
C       -0.16930000       0.17180000      -0.44740000
O       -0.11410000       1.12020000      -1.20370000
C       -1.41510000      -0.72770000      -0.34420000
C       -1.14140000      -2.17040000      -0.04330000
C       -1.43550000      -2.83080000       1.08170000
C       -1.05890000      -4.29120000       1.01550000
C       -0.15490000      -4.35940000      -0.24300000
C       -0.50410000      -3.09490000      -1.06500000
H        1.66630000       0.41260000       0.42430000
H        0.76410000      -0.95380000       1.01910000
H       -2.05640000      -0.29320000       0.43220000
H       -1.94070000      -0.61030000      -1.29690000
H       -1.94520000      -2.39410000       1.93520000
H       -0.55040000      -4.64790000       1.91840000
H       -1.95850000      -4.91410000       0.90720000
H        0.89550000      -4.31450000       0.06310000
H       -0.28410000      -5.28460000      -0.80970000
H       -1.22310000      -3.31120000      -1.86840000
H        0.37140000      -2.65080000      -1.55160000
