23
Properties=species:S:1:pos:R:3 gdb_113998=T pbc="F F F"
C        0.52440000       1.55240000       0.24070000
C       -0.14180000       0.22300000      -0.13430000
C        0.54400000      -0.45540000      -1.30410000
C        1.74170000      -1.35480000      -1.09570000
C        0.43780000      -1.93520000      -1.59530000
C       -0.36870000      -2.89440000      -0.74310000
C        0.11160000      -4.35140000      -0.89860000
C       -0.62330000      -5.28810000       0.02980000
O       -1.24990000      -6.25770000      -0.31210000
H        1.57180000       1.40070000       0.52120000
H        0.50620000       2.25360000      -0.60090000
H        0.01370000       2.02950000       1.08290000
H       -0.14020000      -0.43850000       0.73950000
H       -1.19720000       0.40010000      -0.38050000
H        0.58900000       0.17280000      -2.19180000
H        2.58540000      -1.28550000      -1.77350000
H        2.01900000      -1.57320000      -0.06760000
H        0.41870000      -2.18890000      -2.65310000
H       -0.30550000      -2.60830000       0.31320000
H       -1.43020000      -2.83570000      -1.01590000
H       -0.00990000      -4.70800000      -1.92570000
H        1.18040000      -4.39760000      -0.64460000
H       -0.55250000      -5.00650000       1.10840000
