16
Properties=species:S:1:pos:R:3 gdb_133723=T pbc="F F F"
C       -0.38480000       1.48440000      -0.12130000
C        0.11370000       0.05450000      -0.07000000
O        1.37450000      -0.13030000      -0.75780000
C        1.95020000      -0.82940000       0.35950000
C        0.70610000      -0.56090000       1.23120000
C        0.92560000       0.34190000       2.42190000
F        1.69730000       1.40400000       2.13450000
F       -0.23810000       0.80940000       2.90350000
F        1.53390000      -0.32650000       3.41660000
H        0.34820000       2.17900000       0.29140000
H       -0.57450000       1.75780000      -1.16370000
H       -1.32090000       1.58410000       0.43660000
H       -0.64820000      -0.61480000      -0.49410000
H        2.12920000      -1.88890000       0.14190000
H        2.88250000      -0.36730000       0.69980000
H        0.18150000      -1.44490000       1.59550000
