15
Properties=species:S:1:pos:R:3 gdb_115141=T pbc="F F F"
O       -0.01090000       1.47320000      -0.18810000
C        0.05860000       0.07110000      -0.13930000
C       -1.33500000      -0.55720000       0.04930000
C       -1.39470000      -2.09260000       0.06200000
O       -2.32710000      -2.48550000       1.09920000
C       -2.63820000      -1.46310000       1.92770000
O       -3.33590000      -1.56060000       2.89040000
C       -1.94000000      -0.19760000       1.38720000
O       -1.87720000       0.85190000       1.97290000
H       -0.43950000       1.76440000       0.62820000
H        0.48910000      -0.26340000      -1.08910000
H        0.72320000      -0.28640000       0.66520000
H       -1.99760000      -0.15280000      -0.72670000
H       -1.75350000      -2.52350000      -0.87340000
H       -0.42220000      -2.53580000       0.30260000
