17
Properties=species:S:1:pos:R:3 gdb_79194=T pbc="F F F"
O        0.07580000       1.44200000      -0.02470000
C        0.03760000       0.01720000      -0.00210000
C       -1.37000000      -0.56790000      -0.06120000
C       -2.17520000      -0.16000000      -1.28070000
O       -1.30090000       0.39540000      -2.27160000
C       -0.47670000      -0.83290000      -2.18700000
C       -1.51730000      -1.49640000      -1.26640000
C        0.72920000      -0.55750000      -1.28650000
O        1.69670000       0.30190000      -1.81710000
H       -0.49210000       1.70230000      -0.76450000
H        0.56820000      -0.27460000       0.90640000
H       -1.92070000      -0.78740000       0.84570000
H       -3.21060000       0.15790000      -1.27560000
H       -0.27420000      -1.23730000      -3.17810000
H       -1.90030000      -2.50620000      -1.27050000
H        1.19630000      -1.52530000      -1.05180000
H        1.53720000       1.15890000      -1.39250000
