23
Properties=species:S:1:pos:R:3 gdb_40962=T pbc="F F F"
C        0.00500000       1.31740000      -0.37370000
C        1.44960000       1.52980000       0.11510000
C        1.29380000       0.13590000       0.77010000
C        2.16860000      -0.97930000       0.19690000
C        1.73430000      -2.35550000       0.72160000
C        1.73050000      -2.39330000       2.25660000
C        0.86000000      -1.26640000       2.83130000
C        1.29760000       0.10560000       2.29870000
O       -0.07540000       0.02630000       0.25920000
H       -0.74100000       2.01630000       0.02450000
H       -0.12560000       1.24970000      -1.46090000
H        2.20780000       1.58850000      -0.66840000
H        1.59270000       2.35480000       0.81610000
H        2.11870000      -0.95120000      -0.89740000
H        3.21290000      -0.78020000       0.47700000
H        0.72370000      -2.56420000       0.35020000
H        2.38970000      -3.13500000       0.31780000
H        1.37370000      -3.36680000       2.61130000
H        2.76000000      -2.28440000       2.62700000
H       -0.18540000      -1.43180000       2.54380000
H        0.89420000      -1.27230000       3.92630000
H        2.31310000       0.34060000       2.64810000
H        0.63740000       0.89400000       2.67730000
