19
Properties=species:S:1:pos:R:3 gdb_35730=T pbc="F F F"
C        0.27670000      -1.16150000       0.21360000
C        0.08710000       0.02350000       0.14410000
C       -0.15050000       1.46940000       0.04910000
C       -0.76330000       2.06070000       1.33530000
C        0.48600000       2.31480000       2.16240000
C        0.46330000       2.94410000       3.52510000
C        0.80350000       1.47910000       3.37540000
C        1.56230000       2.64400000       1.13080000
O        1.06540000       2.19870000      -0.13600000
H        0.44840000      -2.20810000       0.26970000
H       -0.77190000       1.66910000      -0.83050000
H       -1.27030000       2.99970000       1.08600000
H       -1.47910000       1.39130000       1.81570000
H        1.26390000       3.63070000       3.78290000
H       -0.49880000       3.20850000       3.95210000
H        0.07180000       0.74610000       3.69820000
H        1.83450000       1.17690000       3.52850000
H        1.74660000       3.72340000       1.05240000
H        2.51530000       2.14860000       1.35750000
