23
Properties=species:S:1:pos:R:3 gdb_119156=T pbc="F F F"
C        0.20780000       1.67550000      -0.35080000
C       -0.02680000       0.17850000      -0.12140000
C        0.84610000      -0.37070000       1.01220000
C        0.75790000      -1.86490000       1.32470000
C       -0.52810000      -2.62720000       1.12660000
C        0.64820000      -2.89010000       0.21760000
C        1.66580000      -2.22330000       2.46590000
O        1.29170000      -1.77980000       3.77860000
C        1.36470000      -3.18330000       3.53530000
H        1.24920000       1.87540000      -0.62640000
H       -0.42930000       2.05950000      -1.15330000
H       -0.01000000       2.25250000       0.55450000
H       -1.08620000       0.01500000       0.10890000
H        0.17570000      -0.36190000      -1.05420000
H        1.89710000      -0.13380000       0.78900000
H        0.60800000       0.17290000       1.93590000
H       -0.80570000      -3.39300000       1.84070000
H       -1.37540000      -2.09290000       0.71330000
H        0.59210000      -2.54600000      -0.80890000
H        1.18570000      -3.82450000       0.34260000
H        2.72380000      -2.05170000       2.24990000
H        0.41270000      -3.70930000       3.55610000
H        2.18490000      -3.70450000       4.02920000
