18
Properties=species:S:1:pos:R:3 gdb_92807=T pbc="F F F"
O       -0.07320000       1.48110000       0.08410000
C        0.03070000       0.07630000       0.01890000
C        0.53210000      -0.54370000       1.38000000
C       -0.75340000      -0.76450000       2.17750000
C       -1.76840000      -0.80400000       1.32120000
C       -3.17200000      -0.34620000       1.00900000
N       -2.94650000       1.08550000       0.60740000
C       -2.73350000       0.00570000      -0.38480000
C       -1.33950000      -0.62250000      -0.11890000
H       -0.91560000       1.68770000       0.51910000
H        0.72770000      -0.14720000      -0.79570000
H        1.09100000      -1.47520000       1.21030000
H        1.21190000       0.15570000       1.87770000
H       -0.79170000      -0.77420000       3.26040000
H       -4.13600000      -0.65680000       1.38930000
H       -3.86070000       1.49660000       0.41790000
H       -3.29820000      -0.00850000      -1.30840000
H       -1.26460000      -1.57890000      -0.65060000
