20
Properties=species:S:1:pos:R:3 gdb_56637=T pbc="F F F"
C        0.11980000       1.35820000      -0.44280000
C        0.06140000      -0.03800000       0.21180000
C        0.64480000      -0.02120000       1.55770000
N        1.09420000      -0.00820000       2.62270000
C       -1.36540000      -0.60800000       0.25110000
C       -2.37420000       0.17810000       1.06190000
O       -1.82700000      -1.04860000      -1.03140000
C       -1.61100000      -2.04020000      -0.01160000
C       -0.57670000      -3.10610000      -0.26680000
H        1.15700000       1.67990000      -0.56120000
H       -0.34830000       1.30670000      -1.42890000
H       -0.39970000       2.10810000       0.15760000
H        0.67190000      -0.71200000      -0.39500000
H       -2.51050000       1.18340000       0.65200000
H       -3.34370000      -0.32430000       1.04390000
H       -2.04810000       0.27480000       2.10200000
H       -2.54280000      -2.43060000       0.40360000
H        0.34010000      -2.70940000      -0.70640000
H       -0.32340000      -3.61830000       0.66720000
H       -0.97990000      -3.85210000      -0.95930000
