17
Properties=species:S:1:pos:R:3 gdb_81117=T pbc="F F F"
O        0.01280000       1.39260000      -0.08890000
C        0.03320000      -0.00200000       0.01220000
C        0.02260000      -0.61790000       1.47490000
C       -1.47880000      -0.19230000       1.52290000
C       -1.42700000      -0.62510000       0.00760000
C       -1.03290000      -2.10360000       0.15100000
C       -0.09580000      -2.09100000       1.10490000
C       -2.42620000      -0.24150000      -0.95310000
C       -3.26290000       0.08560000      -1.75270000
H        0.91990000       1.70700000      -0.14780000
H        0.73600000      -0.46260000      -0.69280000
H        0.74160000      -0.31080000       2.23310000
H       -2.14450000      -0.76740000       2.16920000
H       -1.62110000       0.88240000       1.64120000
H       -1.42980000      -2.91190000      -0.44520000
H        0.49320000      -2.90640000       1.50020000
H       -4.00160000       0.37760000      -2.45700000
