19
Properties=species:S:1:pos:R:3 gdb_19309=T pbc="F F F"
C        0.03320000       1.29480000      -0.25910000
O       -0.06840000       0.10320000       0.50390000
C       -1.28280000      -0.55680000       0.33270000
C       -1.45910000      -1.48230000      -0.84570000
C       -1.27430000      -2.03230000       0.55610000
C        1.40650000       1.87560000      -0.06800000
C        1.58410000       3.34900000      -0.08990000
N        1.74300000       2.59920000       1.16560000
H       -0.14860000       1.08020000      -1.32430000
H       -0.73220000       2.02260000       0.06400000
H       -2.15320000       0.01200000       0.66460000
H       -2.43410000      -1.55530000      -1.31490000
H       -0.61780000      -1.57780000      -1.52310000
H       -0.31340000      -2.47660000       0.78850000
H       -2.12070000      -2.48540000       1.05950000
H        2.21420000       1.24520000      -0.43360000
H        2.49840000       3.78010000      -0.48700000
H        0.69940000       3.96700000      -0.22550000
H        0.91040000       2.69740000       1.74250000
