17
Properties=species:S:1:pos:R:3 gdb_30757=T pbc="F F F"
N       -0.11540000       1.45410000      -0.20350000
C       -0.06450000       0.04570000      -0.03620000
C       -1.13930000      -0.79290000       0.19170000
C       -2.59430000      -0.49990000       0.32390000
O       -3.40160000      -1.43150000      -0.40190000
N       -0.65390000      -2.07470000       0.29300000
C        0.70840000      -2.08750000       0.08180000
C        1.09590000      -0.77910000      -0.10170000
O        2.34080000      -0.25020000      -0.31490000
H        0.75680000       1.77840000      -0.60780000
H       -0.22290000       1.93670000       0.68320000
H       -2.94320000      -0.58950000       1.36060000
H       -2.76900000       0.53810000       0.00790000
H       -3.13660000      -1.36750000      -1.32610000
H       -1.25150000      -2.88180000       0.32520000
H        1.27670000      -3.00350000       0.08980000
H        2.96780000      -0.96630000      -0.45040000
