19
Properties=species:S:1:pos:R:3 gdb_41499=T pbc="F F F"
C       -0.01760000       1.59570000      -0.00090000
C        1.55360000       1.49560000      -0.00060000
C        1.36080000       0.13620000       0.73570000
C       -0.02980000       0.04030000       0.01810000
C        0.33340000      -0.57290000      -1.33120000
O       -0.52170000      -0.44710000      -2.51420000
C        0.62350000      -0.04880000      -3.33120000
C        1.36010000       0.26030000      -2.05170000
C        1.92950000       1.30470000      -1.46120000
H       -0.39820000       1.99230000       0.94450000
H       -0.49300000       2.10800000      -0.83980000
H        2.12960000       2.27510000       0.49910000
H        2.09210000      -0.65380000       0.54230000
H        1.24810000       0.27430000       1.81370000
H       -0.85490000      -0.46810000       0.52100000
H        0.58880000      -1.63450000      -1.19270000
H        0.99980000      -0.89870000      -3.91760000
H        0.39200000       0.78680000      -3.99990000
H        2.42800000       2.10480000      -2.00080000
