20
Properties=species:S:1:pos:R:3 gdb_52145=T pbc="F F F"
O       -1.30630000       1.37780000      -3.34120000
C       -0.40120000       1.42910000      -2.54880000
C        0.79310000       2.34740000      -2.64670000
C        0.96850000       3.19910000      -1.37930000
N        2.28150000       3.83970000      -1.39880000
C        2.59660000       4.89340000      -0.34770000
C        3.73830000       5.34380000      -1.29510000
C        2.45980000       5.15550000      -2.15140000
C        1.67240000       5.92780000      -1.05370000
H       -0.39200000       0.76620000      -1.65020000
H        1.69340000       1.72760000      -2.75890000
H        0.68780000       2.96780000      -3.54120000
H        0.10920000       3.88100000      -1.28370000
H        0.94920000       2.54400000      -0.49810000
H        2.65630000       4.63980000       0.71240000
H        4.10570000       6.36390000      -1.17530000
H        4.52800000       4.61120000      -1.46140000
H        2.36050000       5.21650000      -3.23630000
H        0.59590000       5.77090000      -0.99330000
H        1.91540000       6.98540000      -0.92080000
