23
Properties=species:S:1:pos:R:3 gdb_88819=T pbc="F F F"
C        0.02390000       1.56570000      -0.22880000
C        0.00690000       0.06360000      -0.04160000
C        1.27300000      -0.75070000      -0.15250000
C        0.57410000      -0.62520000       1.18360000
C        1.19960000       0.13150000       2.32130000
C        0.30650000       0.68700000       3.47180000
C        1.42600000       0.29640000       4.47310000
C        2.00700000      -0.65980000       3.39440000
O        1.49240000      -1.97730000       3.48860000
H        0.94410000       2.01620000       0.15470000
H       -0.04530000       1.82490000      -1.29140000
H       -0.81830000       2.04410000       0.28420000
H       -0.88360000      -0.41060000      -0.44760000
H        1.24800000      -1.70440000      -0.66850000
H        2.20340000      -0.20430000      -0.28120000
H        0.03280000      -1.50720000       1.51070000
H        1.84150000       0.93420000       1.94440000
H        0.01220000       1.73770000       3.41950000
H       -0.58940000       0.07610000       3.60820000
H        2.10370000       1.12880000       4.68550000
H        1.12850000      -0.16710000       5.41800000
H        3.09940000      -0.67730000       3.27710000
H        1.83420000      -2.37010000       4.29780000
