16
Properties=species:S:1:pos:R:3 gdb_44612=T pbc="F F F"
O        0.00080000      -0.03030000       0.07910000
C       -0.01190000       1.17510000      -0.01490000
N       -1.12560000       1.98240000      -0.01890000
C       -0.82230000       3.38060000      -0.04060000
C        0.13150000       3.95190000       1.01190000
O        0.59460000       3.09680000       2.02220000
C        1.62260000       2.26650000       1.46010000
C        1.21500000       2.11480000      -0.01960000
C        0.65560000       3.51170000      -0.32710000
H       -2.00440000       1.61690000       0.31330000
H       -1.55220000       4.03050000      -0.51000000
H        0.04700000       4.99420000       1.30170000
H        2.60450000       2.75270000       1.55360000
H        1.63080000       1.31880000       2.00360000
H        2.01420000       1.75510000      -0.66610000
H        1.07630000       4.16080000      -1.08300000
