18
Properties=species:S:1:pos:R:3 gdb_121065=T pbc="F F F"
C        0.67180000       0.99690000      -0.15070000
O        0.92070000       0.28910000       1.04780000
C       -0.12910000      -0.56400000       1.45160000
C       -0.01490000      -1.94390000       0.79080000
C        1.22640000      -2.72400000       1.23850000
O        0.72090000      -3.54640000       2.29620000
C       -0.63620000      -3.63210000       2.18690000
N       -1.40710000      -4.37240000       2.84700000
O       -1.09120000      -2.77680000       1.23570000
H       -0.23080000       1.61970000      -0.06740000
H        1.53450000       1.64440000      -0.32310000
H        0.55470000       0.33370000      -1.02010000
H       -0.04620000      -0.68220000       2.53810000
H       -1.11520000      -0.13160000       1.23210000
H       -0.08390000      -1.86130000      -0.29640000
H        1.63390000      -3.36080000       0.44580000
H        2.01230000      -2.07500000       1.62870000
H       -0.86860000      -4.96130000       3.47770000
