15
Properties=species:S:1:pos:R:3 gdb_43687=T pbc="F F F"
O        0.03670000       0.01000000       0.47880000
C        0.03960000       1.15000000       0.09740000
O       -1.15280000       1.76640000      -0.16440000
C       -1.15270000       3.00810000      -0.90030000
C       -0.10530000       3.98920000      -0.35060000
C        1.21360000       3.29160000      -0.19320000
C        1.26490000       1.96880000      -0.03040000
C       -0.97970000       2.75940000      -2.33310000
C       -0.85090000       2.56910000      -3.51190000
H       -2.15660000       3.40950000      -0.73300000
H       -0.02390000       4.84490000      -1.02710000
H       -0.44190000       4.38070000       0.61870000
H        2.12100000       3.88890000      -0.19630000
H        2.19150000       1.42310000       0.09890000
H       -0.73990000       2.39020000      -4.55340000
