19
Properties=species:S:1:pos:R:3 gdb_126614=T pbc="F F F"
C       -0.02730000       1.52760000       0.00890000
C       -0.11450000       0.00310000      -0.08810000
C        0.80260000      -0.55610000      -1.18090000
N        0.76290000      -2.00260000      -1.26210000
C        0.26210000      -2.79800000      -2.21960000
N        0.39620000      -4.07380000      -1.89800000
C        1.00740000      -4.00020000      -0.68060000
N        1.28980000      -5.13060000       0.06110000
N        1.25970000      -2.77090000      -0.24490000
H        0.99220000       1.85400000       0.24200000
H       -0.32240000       2.00770000      -0.93110000
H       -0.68500000       1.90760000       0.79550000
H        0.16630000      -0.45920000       0.86320000
H       -1.14500000      -0.30710000      -0.29770000
H        0.51490000      -0.17070000      -2.16460000
H        1.83910000      -0.25280000      -0.99540000
H       -0.18150000      -2.41350000      -3.12640000
H        1.42050000      -5.95160000      -0.51140000
H        2.02940000      -4.99930000       0.73540000
