19
Properties=species:S:1:pos:R:3 gdb_48725=T pbc="F F F"
O       -0.03860000       0.01480000      -0.01200000
C        0.06960000       1.21600000      -0.10310000
C        1.33180000       1.95670000       0.02770000
C        1.28180000       3.45720000       0.28880000
C        1.75060000       2.99470000      -1.04710000
C        3.21010000       2.54810000      -1.26040000
C        3.75110000       2.28340000       0.17090000
C        2.65610000       1.18290000       0.17240000
C        3.02980000       0.99120000      -1.33940000
H       -0.82090000       1.85920000      -0.30220000
H        0.28180000       3.88160000       0.31680000
H        1.95710000       3.89760000       1.01090000
H        1.12800000       3.16770000      -1.91840000
H        3.78560000       3.10470000      -2.00050000
H        4.75030000       1.84510000       0.14020000
H        3.73530000       3.07690000       0.91930000
H        2.65720000       0.35510000       0.87840000
H        2.25670000       0.59810000      -2.00360000
H        3.97150000       0.45630000      -1.48710000
