22
Properties=species:S:1:pos:R:3 gdb_58237=T pbc="F F F"
C       -0.09640000       1.56020000      -0.20540000
C       -0.01530000       0.03220000      -0.16770000
O        0.98330000      -0.38550000       0.75430000
C       -1.39140000      -0.62200000       0.11780000
O       -2.37690000      -0.05240000      -0.74290000
C       -1.40640000      -2.15960000       0.05590000
C       -0.56020000      -2.89950000       1.07460000
C       -2.66410000      -2.80580000      -0.40010000
N       -1.46430000      -2.81210000      -1.26780000
H        0.89910000       1.97270000      -0.38940000
H       -0.77960000       1.92230000      -0.97620000
H       -0.45800000       1.94620000       0.75620000
H        0.34000000      -0.33960000      -1.13970000
H        0.76370000      -0.01230000       1.61550000
H       -1.69880000      -0.32670000       1.13200000
H       -2.01520000      -0.00940000      -1.63470000
H       -0.83290000      -2.59910000       2.09380000
H       -0.73340000      -3.97460000       0.98130000
H        0.50270000      -2.70090000       0.93830000
H       -2.93570000      -3.77780000       0.00290000
H       -3.49260000      -2.16720000      -0.68340000
H       -1.59620000      -2.11730000      -2.00050000
