15
Properties=species:S:1:pos:R:3 gdb_61754=T pbc="F F F"
C       -1.15470000       1.58200000      -1.12420000
C       -0.32230000       0.48300000      -0.49000000
O       -1.17620000      -0.49730000       0.12390000
C       -1.08450000      -0.67950000       1.46490000
O       -1.75950000      -1.47110000       2.04360000
C        0.51550000      -0.29630000      -1.50690000
O        0.53060000      -0.07350000      -2.69120000
C        1.42280000      -1.40160000      -0.94800000
O        1.67850000      -1.50840000       0.22230000
H       -0.50590000       2.30670000      -1.62220000
H       -1.83460000       1.16370000      -1.86940000
H       -1.73950000       2.09720000      -0.35850000
H        0.36320000       0.88730000       0.26810000
H       -0.33640000      -0.01570000       1.93590000
H        1.86590000      -2.04330000      -1.73660000
