16
Properties=species:S:1:pos:R:3 gdb_123808=T pbc="F F F"
C       -0.35570000       1.12540000      -0.12520000
C        1.12610000       1.04500000       0.19430000
C        0.33410000      -0.20070000      -0.01950000
O        0.12340000      -0.97900000       1.14030000
C       -0.90040000      -1.84920000       1.08750000
C       -1.32480000      -2.66830000       2.11210000
N       -2.35330000      -3.34780000       1.54300000
N       -2.55740000      -2.98640000       0.27250000
N       -1.66670000      -2.06710000      -0.01010000
H       -1.02070000       1.39840000       0.68580000
H       -0.66980000       1.46180000      -1.10660000
H        1.84750000       1.33090000      -0.56250000
H        1.42420000       1.26280000       1.21360000
H        0.47900000      -0.79280000      -0.91670000
H       -0.99820000      -2.81210000       3.12610000
H       -2.94510000      -4.05170000       1.95430000
