21
Properties=species:S:1:pos:R:3 gdb_56250=T pbc="F F F"
C       -1.40130000      -0.37640000       0.45930000
C        0.04720000      -0.27380000       0.05290000
N        1.02200000       0.21590000       0.70350000
O        0.22060000      -0.79930000      -1.17670000
C        1.55780000      -0.79970000      -1.69680000
C        1.52630000      -1.43580000      -3.07470000
N        1.28030000      -2.87010000      -3.00150000
C       -0.11510000      -3.29490000      -3.04440000
C        0.77720000      -3.50120000      -4.21740000
H       -1.56530000       0.06970000       1.44140000
H       -2.03640000       0.12870000      -0.27480000
H       -1.71050000      -1.42580000       0.48690000
H        0.70810000       0.56530000       1.60590000
H        1.92680000       0.23000000      -1.74740000
H        2.21140000      -1.35920000      -1.02120000
H        0.78270000      -0.91010000      -3.70110000
H        2.50900000      -1.28440000      -3.53750000
H       -0.37400000      -4.12590000      -2.39460000
H       -0.87730000      -2.52340000      -3.12320000
H        0.60750000      -2.86920000      -5.08820000
H        1.18310000      -4.48340000      -4.44200000
