22
Properties=species:S:1:pos:R:3 gdb_99526=T pbc="F F F"
C       -0.00540000       1.38260000      -0.20920000
O       -0.01600000       0.01140000       0.14680000
C       -1.28580000      -0.59610000       0.09450000
C       -1.76990000      -0.66310000      -1.30660000
N       -2.13600000      -0.69330000      -2.40260000
C       -1.20800000      -2.00130000       0.75360000
C       -0.77310000      -1.80810000       2.21750000
C       -2.60200000      -2.65040000       0.70890000
C       -0.18680000      -2.87680000       0.00760000
H        1.02270000       1.72950000      -0.08980000
H       -0.31820000       1.53400000      -1.25070000
H       -0.66320000       1.97080000       0.44780000
H       -2.01930000       0.00960000       0.65390000
H       -1.49720000      -1.19710000       2.76880000
H       -0.70660000      -2.77820000       2.71940000
H        0.20130000      -1.31950000       2.27850000
H       -2.94130000      -2.81480000      -0.31800000
H       -2.57560000      -3.62150000       1.21250000
H       -3.34920000      -2.03260000       1.21960000
H        0.80370000      -2.41570000       0.01510000
H       -0.11360000      -3.85820000       0.48650000
H       -0.48310000      -3.03220000      -1.03450000
