20
Properties=species:S:1:pos:R:3 gdb_26269=T pbc="F F F"
C       -0.02650000       1.59420000       0.25690000
C       -0.04120000       0.07480000       0.01440000
C        0.88420000      -0.65600000       1.00300000
C       -1.45240000      -0.48700000       0.04310000
N       -1.89570000      -1.04410000      -1.09230000
C       -3.13220000      -1.55040000      -1.10920000
C       -3.99070000      -1.53450000      -0.01600000
C       -3.53130000      -0.95610000       1.16400000
C       -2.24830000      -0.42670000       1.19380000
H        0.99170000       1.98630000       0.16480000
H       -0.65880000       2.11730000      -0.46680000
H       -0.38720000       1.84440000       1.26080000
H        0.32270000      -0.11450000      -1.00040000
H        1.90910000      -0.28040000       0.91660000
H        0.56360000      -0.50520000       2.03990000
H        0.89940000      -1.73280000       0.80980000
H       -3.45080000      -1.99250000      -2.05100000
H       -4.98470000      -1.96120000      -0.08880000
H       -4.16300000      -0.91870000       2.04590000
H       -1.86380000       0.03000000       2.09940000
