22
Properties=species:S:1:pos:R:3 gdb_62577=T pbc="F F F"
C       -0.12730000       1.59010000       0.00530000
C       -0.00690000       0.06660000      -0.08060000
C       -1.12250000      -0.61970000       0.69920000
C        0.50610000      -0.75120000      -1.22510000
C        1.60240000      -0.31550000      -2.20350000
C        2.77820000      -1.17810000      -1.60540000
C        2.55310000      -0.19770000      -0.40910000
C        2.30850000       0.87760000      -1.50790000
N        1.24410000      -0.72700000       0.08150000
H       -0.21920000       2.06990000      -0.97170000
H       -1.02690000       1.84430000       0.57320000
H        0.71830000       2.04050000       0.53190000
H       -2.10110000      -0.35170000       0.28460000
H       -1.01180000      -1.70580000       0.67220000
H       -1.10110000      -0.30420000       1.74820000
H       -0.02160000      -1.67160000      -1.47450000
H        1.36010000      -0.31330000      -3.26610000
H        2.58610000      -2.23520000      -1.40910000
H        3.72910000      -1.03740000      -2.12390000
H        3.27750000      -0.06540000       0.39380000
H        3.24380000       1.12240000      -2.01600000
H        1.77240000       1.79410000      -1.29360000
