12
Properties=species:S:1:pos:R:3 gdb_4894=T pbc="F F F"
C       -0.04410000       1.39190000      -0.06960000
O        0.48710000       0.07010000       0.13910000
C        0.78970000      -0.61060000      -0.95500000
C        0.53980000      -1.86290000      -1.33000000
O        1.20140000      -2.09490000      -2.53380000
C        1.83080000      -0.94380000      -2.89020000
O        2.47570000      -0.76510000      -3.87120000
O        1.59070000      -0.00550000      -1.91150000
H        0.67660000       2.01910000      -0.59970000
H       -0.98100000       1.34030000      -0.63440000
H       -0.23020000       1.79500000       0.92540000
H       -0.01610000      -2.67090000      -0.89400000
