20
Properties=species:S:1:pos:R:3 gdb_67101=T pbc="F F F"
C       -0.10840000       1.50600000      -0.08800000
C       -0.03590000       0.00920000      -0.03980000
C        0.83910000      -0.95780000      -0.88710000
C        1.97510000      -0.96090000       0.19280000
C        0.66460000      -0.90630000       1.01700000
C       -0.14770000      -0.84810000       2.28830000
C       -1.55870000      -0.84820000       1.54300000
N       -1.25870000      -0.88260000       0.06940000
C       -0.08210000      -1.81890000       0.00730000
H        0.89640000       1.94100000      -0.11550000
H       -0.64830000       1.83730000      -0.98090000
H       -0.62660000       1.91110000       0.78830000
H        0.93930000      -0.99150000      -1.97230000
H        2.57120000      -1.87500000       0.26990000
H        2.62460000      -0.08090000       0.22720000
H       -0.02440000      -1.71400000       2.94430000
H        0.00950000       0.05930000       2.87870000
H       -2.15540000      -1.72570000       1.80680000
H       -2.14750000       0.04290000       1.77620000
H       -0.18220000      -2.90550000       0.04550000
