12
Properties=species:S:1:pos:R:3 gdb_4714=T pbc="F F F"
N        0.15750000       1.34110000       0.15860000
C       -0.05520000      -0.00730000       0.04730000
C       -1.17570000      -0.80580000       0.00140000
N       -0.77920000      -2.11590000      -0.02810000
C        0.52030000      -2.09290000      -0.00230000
O        1.02860000      -0.80120000       0.04580000
C        1.50530000      -3.16830000      -0.01960000
O        1.23950000      -4.34670000      -0.06190000
H        1.04820000       1.66270000      -0.19260000
H       -0.61530000       1.91890000      -0.13550000
H       -2.21250000      -0.51100000      -0.01090000
H        2.55050000      -2.79250000       0.01120000
