19
Properties=species:S:1:pos:R:3 gdb_50558=T pbc="F F F"
O        0.26120000      -0.13220000      -0.14580000
C        0.22750000       1.06950000      -0.10100000
C        1.42250000       1.97240000       0.09170000
C        1.55670000       2.99750000      -1.08030000
O        1.29900000       4.28520000      -0.54060000
C        1.69630000       4.24470000       0.80700000
C        3.00390000       4.88870000       1.19590000
C        1.66930000       5.52460000       1.56320000
C        1.25260000       2.89160000       1.33270000
H       -0.73560000       1.62540000      -0.20960000
H        2.31270000       1.34590000       0.16810000
H        2.56950000       2.94100000      -1.50130000
H        0.83870000       2.82900000      -1.88970000
H        3.59770000       4.44060000       1.98600000
H        3.57370000       5.36420000       0.40550000
H        1.37360000       6.41220000       1.01560000
H        1.35210000       5.50360000       2.60040000
H        0.19840000       2.93780000       1.63290000
H        1.83270000       2.54270000       2.18860000
