16
Properties=species:S:1:pos:R:3 gdb_67497=T pbc="F F F"
O       -0.01410000       1.34890000      -0.00980000
C        0.05980000      -0.02580000       0.03130000
C       -0.16440000      -0.89400000      -1.19560000
C        0.69860000      -1.83140000      -1.85790000
C        1.40230000      -2.56660000      -2.50170000
C       -1.06300000      -1.01440000       0.04930000
N       -0.55800000      -1.69380000       1.30070000
C        0.80850000      -2.22650000       1.11060000
C        0.63170000      -0.76810000       1.26180000
H        0.80980000       1.68770000      -0.37980000
H       -0.72640000      -0.29260000      -1.91180000
H        2.02840000      -3.23060000      -3.04450000
H       -2.13460000      -0.89430000      -0.04560000
H        1.14850000      -2.76100000       1.99430000
H        1.10060000      -2.67150000       0.17040000
H        0.91820000      -0.21200000       2.14880000
