19
Properties=species:S:1:pos:R:3 gdb_104501=T pbc="F F F"
C        0.07900000       1.34940000      -0.35940000
C        0.11270000      -0.08190000       0.12450000
N        1.42430000      -0.74450000       0.22790000
C        0.62750000      -0.53480000       1.45040000
C        1.23150000       0.43010000       2.45470000
O        2.06220000      -0.22700000       3.39470000
C       -0.03460000      -1.76050000       2.09180000
C        0.93200000      -2.79980000       2.45510000
N        1.69150000      -3.63990000       2.68590000
H        0.94440000       1.91530000      -0.01060000
H        0.08710000       1.37280000      -1.45410000
H       -0.83110000       1.85520000      -0.01990000
H       -0.70340000      -0.68950000      -0.26830000
H        1.37920000      -1.71310000      -0.08030000
H        1.77180000       1.22040000       1.92020000
H        0.43550000       0.90150000       3.04340000
H        2.78290000      -0.64720000       2.91140000
H       -0.58920000      -1.46640000       2.98940000
H       -0.75660000      -2.20750000       1.39960000
