21
Properties=species:S:1:pos:R:3 gdb_122597=T pbc="F F F"
C       -1.07980000       1.17360000       0.62330000
C        0.01170000       0.25560000       0.10000000
O        0.59690000      -0.41990000       1.19630000
C        1.62700000      -1.30600000       0.81870000
C        2.16240000      -1.98120000       2.06600000
C        1.31190000      -3.06930000       2.79300000
C        2.54490000      -4.02390000       2.83710000
C        3.25080000      -3.05530000       1.87490000
O        4.20880000      -3.13510000       1.16140000
H       -0.66370000       1.90480000       1.32200000
H       -1.55330000       1.71240000      -0.20280000
H       -1.84730000       0.59720000       1.14770000
H       -0.40470000      -0.47330000      -0.61600000
H        0.77870000       0.83420000      -0.44210000
H        1.24630000      -2.06240000       0.10990000
H        2.44410000      -0.77000000       0.30830000
H        2.51180000      -1.21350000       2.76740000
H        0.89010000      -2.78080000       3.75560000
H        0.50970000      -3.45210000       2.15770000
H        3.04120000      -4.05580000       3.81280000
H        2.42310000      -5.04930000       2.47920000
