19
Properties=species:S:1:pos:R:3 gdb_110034=T pbc="F F F"
C        0.00610000       1.40720000      -0.07560000
N       -0.18650000      -0.02630000       0.17520000
C        0.66680000      -0.62540000       1.19240000
C        0.36640000      -2.13400000       1.31350000
O        0.16110000      -2.69500000       0.03650000
C        1.67600000      -2.65440000       1.90070000
O        2.70050000      -1.79920000       1.36310000
C        2.16140000      -0.64700000       0.87640000
N        2.82440000       0.25500000       0.29280000
H        1.01160000       1.57390000      -0.45860000
H       -0.72580000       1.72860000      -0.82170000
H       -0.12490000       2.02370000       0.82890000
H       -1.14830000      -0.17120000       0.47050000
H        0.55840000      -0.15370000       2.18740000
H       -0.48580000      -2.34230000       1.97660000
H       -0.04990000      -1.94470000      -0.54440000
H        1.69050000      -2.59220000       2.99580000
H        1.88270000      -3.67870000       1.58600000
H        3.80690000      -0.01510000       0.22090000
