18
Properties=species:S:1:pos:R:3 gdb_133574=T pbc="F F F"
C       -0.07930000       1.54570000      -0.13480000
C       -0.00440000       0.03270000      -0.03130000
C       -1.25480000      -0.67440000      -0.52470000
C        1.31910000      -0.65920000      -0.25240000
C        0.70990000      -0.63150000       1.13010000
C        1.36100000       0.13150000       2.24520000
F        2.21770000       1.07780000       1.81640000
F        0.45320000       0.74830000       3.02370000
F        2.06010000      -0.69530000       3.04250000
H        0.83700000       2.03160000       0.20110000
H       -0.25890000       1.83970000      -1.17490000
H       -0.90700000       1.93570000       0.46790000
H       -1.44310000      -0.43430000      -1.57720000
H       -1.16490000      -1.76200000      -0.44110000
H       -2.13470000      -0.36430000       0.05010000
H        1.33750000      -1.60950000      -0.77470000
H        2.19350000      -0.03860000      -0.41180000
H        0.27000000      -1.54960000       1.50550000
