14
Properties=species:S:1:pos:R:3 gdb_133593=T pbc="F F F"
F        0.40290000       0.16710000      -0.09310000
C       -0.02870000       1.43090000      -0.02480000
F        1.03390000       2.23790000      -0.18340000
F       -0.85650000       1.63230000      -1.05750000
C       -0.71710000       1.76620000       1.29170000
O       -1.81430000       0.88690000       1.60860000
C       -1.28150000       0.69450000       2.93150000
C        0.02690000      -0.01360000       2.88250000
C       -0.02550000       1.48230000       2.61990000
H       -1.06420000       2.80350000       1.21090000
H       -1.97880000       0.72030000       3.75930000
H        0.44950000      -0.26050000       3.85160000
H        0.23550000      -0.72060000       2.08950000
H        0.51540000       2.21060000       3.20630000
