19
Properties=species:S:1:pos:R:3 gdb_37560=T pbc="F F F"
C       -0.07890000       1.61530000      -0.04170000
C        1.42260000       1.27230000      -0.02570000
C        1.23940000       0.11790000       1.00050000
C       -0.04860000       0.07740000       0.05250000
C        1.20500000      -0.04090000      -0.88720000
C        1.82190000      -0.28590000      -2.23760000
C        3.30140000      -0.54970000      -1.75650000
O        3.31430000      -0.75930000      -0.32120000
C        1.96680000      -0.89520000       0.09160000
H       -0.46510000       2.14850000       0.83270000
H       -0.48640000       2.04290000      -0.96330000
H        2.28230000       1.93830000      -0.08820000
H        1.21610000       0.21000000       2.08770000
H       -0.87640000      -0.62910000       0.12430000
H        1.40680000      -1.17480000      -2.72350000
H        1.76880000       0.54900000      -2.94060000
H        3.72560000      -1.42920000      -2.25560000
H        3.94810000       0.30800000      -1.96930000
H        1.68240000      -1.95060000       0.20900000
