21
Properties=species:S:1:pos:R:3 gdb_97742=T pbc="F F F"
C       -0.38500000       1.57450000      -0.08550000
C        0.20930000       0.17210000       0.14020000
C        0.89060000      -0.35660000      -1.03730000
C        1.44850000      -0.77390000      -2.02200000
C        2.10630000      -1.25170000      -3.22150000
C        3.57160000      -1.81660000      -3.15300000
C        2.99290000      -3.07750000      -2.44870000
C        2.01960000      -2.76880000      -3.62300000
C        3.27570000      -2.52390000      -4.50570000
H        0.39820000       2.28970000      -0.35110000
H       -1.11670000       1.56000000      -0.89790000
H       -0.88340000       1.92920000       0.82170000
H        0.91060000       0.20470000       0.98430000
H       -0.58930000      -0.51840000       0.44150000
H        1.93790000      -0.56430000      -4.05770000
H        4.46360000      -1.25190000      -2.87850000
H        3.58260000      -3.99360000      -2.53740000
H        2.60370000      -2.94090000      -1.43870000
H        1.11130000      -3.30900000      -3.89300000
H        3.14810000      -1.88330000      -5.38310000
H        3.88390000      -3.40220000      -4.73430000
