17
Properties=species:S:1:pos:R:3 gdb_87478=T pbc="F F F"
O        0.13370000       1.35580000      -0.11220000
C        0.02310000      -0.03500000      -0.02610000
C       -0.42840000      -0.74490000       1.24630000
C       -1.28620000      -0.74060000       0.01600000
C       -2.71960000      -0.20180000      -0.24440000
C       -2.50040000      -0.68120000      -1.72190000
C       -1.89400000      -1.85700000      -0.87740000
C       -3.13050000      -1.66790000       0.02620000
O       -3.94450000      -2.29880000       0.62220000
H       -0.59660000       1.75440000       0.37220000
H        0.83630000      -0.49060000      -0.58300000
H        0.08350000      -1.65520000       1.54420000
H       -0.73980000      -0.11980000       2.07980000
H       -3.17110000       0.72470000       0.10510000
H       -3.39140000      -0.89880000      -2.31360000
H       -1.76250000      -0.09870000      -2.27460000
H       -1.41470000      -2.76650000      -1.23190000
