18
Properties=species:S:1:pos:R:3 gdb_11031=T pbc="F F F"
C       -0.02680000       1.59770000       0.06210000
C        0.01280000       0.06310000       0.00370000
C        0.76390000      -0.48310000      -1.20020000
C        1.74490000      -1.31990000      -0.85810000
C        1.83190000      -1.44900000       0.63460000
C        2.39350000      -2.67200000       1.30110000
O        2.14500000      -0.17520000       1.26530000
C        0.77300000      -0.57400000       1.16850000
H        0.98850000       1.99350000       0.14540000
H       -0.48980000       2.01460000      -0.83790000
H       -0.60360000       1.94250000       0.92620000
H       -1.01910000      -0.31730000       0.00260000
H        0.53100000      -0.16550000      -2.21130000
H        2.41840000      -1.83010000      -1.53690000
H        3.45230000      -2.79960000       1.04960000
H        2.31110000      -2.58920000       2.38750000
H        1.86100000      -3.57160000       0.97430000
H        0.27500000      -0.75430000       2.11880000
