21
Properties=species:S:1:pos:R:3 gdb_73932=T pbc="F F F"
C        0.18370000       1.55340000       0.08180000
C        0.04250000       0.06830000      -0.04650000
C       -1.07710000      -0.66520000      -0.15040000
C       -0.77620000      -2.15130000      -0.18350000
C        0.74680000      -2.20090000      -0.44740000
C        1.27460000      -0.81300000      -0.01810000
C       -2.46280000      -0.15880000      -0.15080000
C       -3.55110000      -0.78140000      -0.93030000
O       -3.46000000      -0.99380000       0.47330000
H        0.75460000       1.81120000       0.98330000
H        0.74390000       1.96840000      -0.76620000
H       -0.77540000       2.07410000       0.13190000
H       -1.04690000      -2.60880000       0.77680000
H       -1.34630000      -2.69260000      -0.94650000
H        1.24100000      -3.02500000       0.07310000
H        0.92660000      -2.34180000      -1.51810000
H        2.07250000      -0.44190000      -0.67330000
H        1.70070000      -0.82810000       0.99660000
H       -2.58500000       0.89860000       0.08030000
H       -4.38560000      -0.16330000      -1.26120000
H       -3.34550000      -1.65090000      -1.55220000
