20
Properties=species:S:1:pos:R:3 gdb_57400=T pbc="F F F"
C       -0.24810000       1.50510000       0.00870000
C        0.04080000       0.00750000       0.01340000
C        0.85080000      -0.40880000       1.25560000
O       -1.22590000      -0.65290000       0.00780000
C        0.80210000      -0.40290000      -1.23190000
N        1.42000000       0.33880000      -2.05220000
C        2.00960000      -0.54870000      -3.06630000
C        1.53530000      -1.97160000      -2.66950000
O        0.80320000      -1.75600000      -1.44270000
H        0.68030000       2.07770000      -0.02230000
H       -0.84730000       1.77060000      -0.86440000
H       -0.80620000       1.76560000       0.91200000
H        0.27040000      -0.18000000       2.15330000
H        1.05950000      -1.48270000       1.23860000
H        1.80460000       0.12560000       1.30350000
H       -1.06030000      -1.58570000      -0.17130000
H        1.66820000      -0.25600000      -4.06410000
H        3.10060000      -0.45200000      -3.05520000
H        0.85770000      -2.42390000      -3.39940000
H        2.35170000      -2.66860000      -2.46340000
