18
Properties=species:S:1:pos:R:3 gdb_69675=T pbc="F F F"
C        0.11070000       1.61170000      -0.02230000
C        0.00630000       0.11750000       0.05980000
C       -0.86300000      -0.63940000       1.02460000
C        0.62400000      -0.88310000       1.01360000
N        1.22860000      -1.70990000      -0.10780000
C        0.21240000      -2.24630000      -1.06260000
C       -1.00960000      -2.94440000      -0.77260000
C       -1.98250000      -3.64010000      -0.63650000
C        0.53640000      -0.78990000      -1.07160000
H        1.09070000       1.92550000      -0.40020000
H       -0.65310000       2.02880000      -0.69020000
H       -0.02900000       2.06590000       0.96350000
H       -1.16610000      -0.03930000       1.87950000
H       -1.59540000      -1.37150000       0.71990000
H        1.25220000      -0.74350000       1.88410000
H        0.76410000      -2.76700000      -1.84660000
H       -2.85620000      -4.22520000      -0.48790000
H        1.08230000      -0.36700000      -1.91210000
