20
Properties=species:S:1:pos:R:3 gdb_83006=T pbc="F F F"
C       -0.19700000       1.55920000      -0.17390000
N        0.07720000       0.14510000       0.02780000
C        1.33310000      -0.50040000      -0.28470000
C        2.62790000       0.31550000      -0.38640000
C        2.98380000       0.78080000       1.04730000
C        2.63860000       2.20890000       1.51720000
O        1.48560000       1.74280000       2.25080000
C        1.81040000       0.35590000       1.96430000
C        0.81340000      -0.43840000       1.13430000
H        0.68340000       2.20630000      -0.25540000
H       -0.76960000       1.65810000      -1.10300000
H       -0.80890000       1.92900000       0.65100000
H        1.25740000      -1.39810000      -0.89550000
H        3.41770000      -0.32360000      -0.79200000
H        2.52820000       1.15950000      -1.07930000
H        3.97690000       0.44130000       1.34530000
H        3.38320000       2.65690000       2.18700000
H        2.37610000       2.94200000       0.74450000
H        2.06170000      -0.18190000       2.88630000
H        0.31780000      -1.27910000       1.61530000
