23
Properties=species:S:1:pos:R:3 gdb_113949=T pbc="F F F"
C        0.56330000       1.63830000       0.10200000
C        0.52140000       0.14110000      -0.19470000
N        0.86400000      -0.61450000       1.00770000
C       -0.22160000      -1.10770000       1.84570000
C        0.62880000      -2.05390000       1.06650000
C        0.04940000      -2.85210000      -0.08070000
N        1.06050000      -3.09650000      -1.10820000
C        1.90880000      -4.26790000      -0.91140000
C        0.84990000      -4.26220000      -1.95790000
H        1.55050000       1.92870000       0.47200000
H        0.34230000       2.21770000      -0.80010000
H       -0.17440000       1.90660000       0.86580000
H       -0.47210000      -0.12030000      -0.59630000
H        1.25320000      -0.11980000      -0.96620000
H       -0.09750000      -0.99850000       2.92030000
H       -1.24320000      -0.96010000       1.49220000
H        1.41740000      -2.58570000       1.59930000
H       -0.36180000      -3.79650000       0.32470000
H       -0.78440000      -2.32030000      -0.54910000
H        2.95450000      -4.14780000      -1.17880000
H        1.73120000      -4.88570000      -0.03190000
H       -0.03140000      -4.87560000      -1.77480000
H        1.10700000      -4.13690000      -3.00580000
