19
Properties=species:S:1:pos:R:3 gdb_98588=T pbc="F F F"
C       -0.02570000       1.54510000       0.05490000
C        0.02930000       0.02080000       0.11130000
C        0.81050000      -0.52660000       1.29020000
O        1.34200000       0.23420000       2.10840000
C        0.91720000      -1.97550000       1.43230000
C        2.23870000      -2.51470000       2.08590000
O        3.29600000      -1.66770000       2.33280000
C        1.00220000      -2.52630000       2.89980000
O        0.80000000      -1.69110000       3.97580000
H        0.97840000       1.97110000      -0.01170000
H       -0.60010000       1.87470000      -0.81500000
H       -0.49370000       1.95370000       0.95390000
H       -0.97910000      -0.41350000       0.15450000
H        0.47700000      -0.39610000      -0.80160000
H        0.42910000      -2.58750000       0.68240000
H        2.58250000      -3.45750000       1.67130000
H        2.93520000      -0.78000000       2.49270000
H        0.49800000      -3.47700000       3.04360000
H        1.07760000      -0.79730000       3.71520000
