21
Properties=species:S:1:pos:R:3 gdb_78304=T pbc="F F F"
C        0.01530000       1.50720000       0.05110000
C       -0.02860000      -0.00630000       0.00720000
C        1.26570000      -0.73790000      -0.26790000
C        0.65430000      -0.75890000       1.12350000
C        0.44970000      -2.27320000       1.29470000
O       -0.11100000      -2.61730000       2.52140000
C        1.84280000      -2.80590000       0.77710000
C        1.27620000      -2.25080000      -0.57340000
C       -0.10700000      -2.75630000      -0.07470000
H        0.96120000       1.86570000       0.47120000
H       -0.08600000       1.93480000      -0.95250000
H       -0.79510000       1.90710000       0.67010000
H       -0.95410000      -0.39740000      -0.40180000
H        2.15640000      -0.16070000      -0.49330000
H        1.07560000      -0.21750000       1.96350000
H       -0.17980000      -3.57650000       2.56400000
H        2.74580000      -2.34040000       1.18120000
H        1.92440000      -3.89780000       0.80010000
H        1.67570000      -2.57320000      -1.53360000
H       -0.16280000      -3.84770000      -0.11480000
H       -1.02770000      -2.33250000      -0.47560000
