18
Properties=species:S:1:pos:R:3 gdb_39279=T pbc="F F F"
C       -0.06320000       1.50770000       0.05330000
O        1.33130000       1.87840000      -0.09800000
C        2.16550000       0.71450000       0.06530000
C        1.27760000      -0.25140000       0.83690000
C        0.06450000       0.00580000      -0.05740000
N       -0.81230000      -1.01820000      -0.58900000
C        0.26340000      -0.47290000      -1.45200000
C        1.69600000      -0.91590000      -1.66650000
O        2.56550000       0.12410000      -1.16500000
H       -0.43540000       1.86210000       1.02350000
H       -0.64820000       1.96450000      -0.74830000
H        3.08590000       1.05820000       0.53850000
H        1.64560000      -1.27700000       0.85210000
H        1.10420000       0.08300000       1.86310000
H       -0.57400000      -1.92160000      -0.18400000
H       -0.13970000       0.14740000      -2.24740000
H        1.91520000      -1.87660000      -1.18040000
H        1.94660000      -1.01560000      -2.72450000
