17
Properties=species:S:1:pos:R:3 gdb_62268=T pbc="F F F"
O        0.02900000       1.09250000      -1.10130000
C        0.09760000      -0.16270000      -0.48170000
C        1.02480000      -1.11250000      -1.26400000
O        0.53860000      -1.41560000      -2.55100000
C        0.77360000      -0.45290000      -3.56090000
C       -0.43270000       0.44060000      -3.83420000
O       -0.40870000       1.34530000      -4.62440000
C        0.56000000      -0.01940000       0.95330000
O        0.83090000       1.06000000       1.42120000
H        0.29780000       1.74060000      -0.43020000
H       -0.90060000      -0.63540000      -0.45410000
H        2.02780000      -0.66330000      -1.31860000
H        1.09930000      -2.06900000      -0.73340000
H        1.64060000       0.18130000      -3.33990000
H        0.98970000      -1.00190000      -4.48700000
H       -1.34840000       0.15510000      -3.27280000
H        0.63590000      -0.95100000       1.54930000
