17
Properties=species:S:1:pos:R:3 gdb_44543=T pbc="F F F"
O        0.02240000       0.07040000      -0.66890000
C       -0.03560000       1.15180000      -0.16350000
C       -1.29560000       1.97780000       0.13740000
C       -0.78600000       3.23700000       0.83140000
C       -0.73810000       3.32120000       2.36950000
C       -0.08500000       2.11120000       2.96670000
C        0.79490000       3.16330000       2.35570000
C        0.76440000       3.08490000       0.82810000
O        1.08580000       1.82960000       0.22840000
H       -1.80000000       2.18140000      -0.81120000
H       -1.97570000       1.37150000       0.74120000
H       -1.13430000       4.16070000       0.37000000
H       -1.33790000       4.00030000       2.96210000
H       -0.06870000       2.09020000       4.05130000
H       -0.17850000       1.12670000       2.51790000
H        1.54670000       3.68820000       2.93080000
H        1.33400000       3.86600000       0.32320000
