20
Properties=species:S:1:pos:R:3 gdb_40466=T pbc="F F F"
C       -0.08530000       1.44400000      -0.08280000
C        1.28080000       0.83320000       0.07820000
C        0.05690000      -0.05000000       0.10700000
C       -0.38210000      -0.67810000       1.37740000
C       -0.31880000      -0.12630000       2.81110000
C       -0.81490000      -1.56580000       2.94040000
C       -1.68290000      -1.51340000       1.65190000
C       -0.97620000      -2.76690000       1.15320000
N        0.17990000      -2.06630000       1.86100000
H       -0.48170000       2.02200000       0.74510000
H       -0.38270000       1.80560000      -1.06070000
H        1.92790000       0.77260000      -0.78940000
H        1.80380000       0.99760000       1.01370000
H       -0.11260000      -0.66000000      -0.77600000
H        0.67970000       0.07460000       3.20980000
H       -1.02730000       0.66550000       3.06870000
H       -0.99340000      -2.16470000       3.83480000
H       -2.72340000      -1.18460000       1.55030000
H       -1.24520000      -3.72370000       1.61340000
H       -0.82530000      -2.89520000       0.07660000
