25
Properties=species:S:1:pos:R:3 gdb_110215=T pbc="F F F"
C        0.27720000       1.41270000       0.23160000
C       -0.17820000      -0.01220000      -0.10810000
C        0.61660000      -0.61900000      -1.24970000
C        1.98910000      -1.24710000      -1.14640000
C        3.16960000      -0.77350000      -1.94790000
C        2.10710000      -2.05440000       0.15610000
C        0.87160000      -2.90730000      -0.26910000
C        0.76260000      -2.08950000      -1.56540000
C        0.38760000      -2.67850000      -2.89680000
H        1.32560000       1.42540000       0.54820000
H        0.18830000       2.07450000      -0.63730000
H       -0.32360000       1.84220000       1.03980000
H       -0.10660000      -0.63710000       0.78800000
H       -1.24200000      -0.00000000      -0.38050000
H        0.52830000      -0.03270000      -2.16590000
H        3.68370000       0.05790000      -1.44890000
H        3.90550000      -1.57400000      -2.09150000
H        2.86480000      -0.41890000      -2.93840000
H        3.02380000      -2.64920000       0.19240000
H        2.03040000      -1.49260000       1.09360000
H        1.14070000      -3.94950000      -0.46180000
H        0.00110000      -2.89930000       0.39560000
H       -0.68220000      -2.92000000      -2.93980000
H        0.59680000      -1.98210000      -3.71600000
H        0.94000000      -3.60470000      -3.09620000
