21
Properties=species:S:1:pos:R:3 gdb_95985=T pbc="F F F"
C        0.28450000       1.41540000      -0.49560000
C       -0.10830000       0.15340000       0.27600000
O       -0.45530000      -0.91260000      -0.59600000
C        0.72820000      -1.62590000      -0.95510000
C        1.77540000      -1.35290000       0.14980000
C        1.03010000      -0.45770000       1.15590000
C        1.90100000       0.59060000       1.83870000
C        1.38590000       1.12670000       3.16190000
O        2.93510000       0.98780000       1.35030000
H        1.22200000       1.28410000      -1.04310000
H       -0.50580000       1.65900000      -1.21050000
H        0.41330000       2.26800000       0.17890000
H       -1.00110000       0.35950000       0.87640000
H        0.45680000      -2.68310000      -1.03520000
H        1.09230000      -1.29800000      -1.93830000
H        2.13000000      -2.27340000       0.61880000
H        2.64660000      -0.81950000      -0.23510000
H        0.54160000      -1.06540000       1.92470000
H        0.33860000       1.43800000       3.07750000
H        1.41690000       0.33140000       3.91630000
H        2.00070000       1.96410000       3.49330000
