17
Properties=species:S:1:pos:R:3 gdb_49197=T pbc="F F F"
O       -0.11860000      -0.00320000      -0.07600000
C       -0.03650000       1.20420000      -0.11750000
C        1.23010000       1.94190000      -0.02280000
C        1.32950000       3.27930000      -0.07170000
C        2.75330000       3.73920000       0.08580000
O        3.04010000       4.23740000       1.41680000
C        3.69320000       2.99610000       1.77500000
C        3.54540000       2.42890000       0.34410000
C        2.57160000       1.25450000       0.13760000
H       -0.94080000       1.84160000      -0.23350000
H        0.49310000       3.96220000      -0.17930000
H        3.08390000       4.44780000      -0.68150000
H        4.71740000       3.17110000       2.12220000
H        3.14040000       2.44780000       2.54880000
H        4.48830000       2.31630000      -0.19000000
H        2.56440000       0.55080000       0.97740000
H        2.81410000       0.66190000      -0.75180000
