23
Properties=species:S:1:pos:R:3 gdb_122119=T pbc="F F F"
C       -0.04550000       1.51510000       0.05970000
C       -0.00090000      -0.00170000      -0.00640000
O       -1.32790000      -0.49230000      -0.00410000
C       -1.41160000      -1.89740000      -0.06650000
C       -2.88540000      -2.28710000      -0.00300000
C       -3.06120000      -3.82320000      -0.03750000
C       -4.51120000      -4.26750000      -0.24870000
C       -3.49720000      -1.74430000       1.27640000
O       -4.58870000      -1.24760000       1.37000000
H        0.96840000       1.92600000       0.06080000
H       -0.58460000       1.92050000      -0.80100000
H       -0.55580000       1.84430000       0.96910000
H        0.52300000      -0.33600000      -0.91790000
H        0.55560000      -0.41280000       0.85290000
H       -0.95500000      -2.28040000      -0.99420000
H       -0.86130000      -2.35570000       0.77560000
H       -3.41990000      -1.83420000      -0.84470000
H       -2.43000000      -4.22440000      -0.83990000
H       -2.67070000      -4.25110000       0.89600000
H       -4.58910000      -5.35870000      -0.23160000
H       -5.17080000      -3.86730000       0.52660000
H       -4.89110000      -3.91800000      -1.21430000
H       -2.85160000      -1.88770000       2.17720000
