19
Properties=species:S:1:pos:R:3 gdb_58809=T pbc="F F F"
C       -0.00950000       1.44570000      -0.25430000
C        0.00210000      -0.03830000       0.11240000
O        0.80530000      -0.30190000       1.25860000
C       -1.39020000      -0.57580000       0.31660000
C       -2.35540000      -0.35280000       1.49020000
C       -3.00750000      -1.75040000       1.13930000
O       -4.35290000      -1.77980000       0.75910000
C       -1.97450000      -1.89100000       0.00780000
O       -2.21320000      -0.75770000      -0.85280000
H        1.01230000       1.80460000      -0.40320000
H       -0.58170000       1.61120000      -1.17140000
H       -0.47290000       2.04050000       0.54300000
H        0.46060000      -0.60890000      -0.70300000
H        0.57290000       0.34370000       1.93490000
H       -1.86730000      -0.36130000       2.46780000
H       -3.01650000       0.51310000       1.40700000
H       -2.87680000      -2.47990000       1.94140000
H       -4.41310000      -1.24380000      -0.04250000
H       -1.54860000      -2.77620000      -0.45150000
