16
Properties=species:S:1:pos:R:3 gdb_108910=T pbc="F F F"
O        0.19950000       1.45870000      -0.08150000
C        0.12740000       0.05860000      -0.09980000
C       -1.28860000      -0.42630000      -0.02590000
N       -2.29570000       0.35220000       0.02670000
C       -3.47770000      -0.51980000       0.12640000
C       -2.91720000      -1.95670000       0.03110000
O       -1.48000000      -1.75900000      -0.01830000
C       -4.20890000      -0.22700000       1.43540000
O       -4.57490000      -1.07270000       2.20830000
H       -0.71230000       1.77870000      -0.03330000
H        0.58330000      -0.34900000      -1.01550000
H        0.68390000      -0.37690000       0.74430000
H       -4.18010000      -0.28320000      -0.68500000
H       -3.16560000      -2.55230000       0.91180000
H       -3.21850000      -2.48640000      -0.87480000
H       -4.37490000       0.85450000       1.62120000
