18
Properties=species:S:1:pos:R:3 gdb_77731=T pbc="F F F"
O        0.19270000       1.23480000       0.33240000
C        0.03390000      -0.13010000       0.15180000
C       -1.37820000      -0.68990000       0.01840000
C       -2.53290000       0.26080000      -0.23320000
C       -2.34130000       0.63480000      -1.73610000
O       -0.93120000       0.43000000      -2.04300000
C       -0.47770000      -0.57330000      -1.19520000
C       -0.56770000      -2.09240000      -1.35580000
N       -1.44720000      -2.15080000      -0.13880000
H        0.08610000       1.64030000      -0.53990000
H        0.78340000      -0.72370000       0.67540000
H       -3.49350000      -0.22870000      -0.06310000
H       -2.46760000       1.14840000       0.40150000
H       -2.94330000      -0.01810000      -2.38090000
H       -2.57590000       1.67540000      -1.97550000
H       -1.10480000      -2.41120000      -2.25550000
H        0.38030000      -2.64140000      -1.29540000
H       -1.05410000      -2.67160000       0.64080000
