18
Properties=species:S:1:pos:R:3 gdb_98308=T pbc="F F F"
C       -0.07460000       1.34700000      -0.11850000
O       -0.08220000      -0.08940000      -0.04580000
C       -1.28450000      -0.66090000       0.01130000
O       -2.33590000      -0.06240000       0.02690000
C       -1.21030000      -2.18620000       0.06170000
O       -2.51400000      -2.69290000       0.20020000
C       -0.53170000      -2.73710000      -1.19080000
C       -0.85590000      -4.10370000      -1.65410000
N       -1.32530000      -2.92360000      -2.41000000
H        0.97560000       1.63390000      -0.15400000
H       -0.59670000       1.68440000      -1.01650000
H       -0.56200000       1.77470000       0.76060000
H       -0.59900000      -2.45660000       0.93680000
H       -3.09480000      -1.91570000       0.21970000
H        0.46650000      -2.33990000      -1.35390000
H       -0.09630000      -4.69780000      -2.15370000
H       -1.59000000      -4.66400000      -1.08410000
H       -2.30430000      -2.77730000      -2.16610000
