23
Properties=species:S:1:pos:R:3 gdb_103653=T pbc="F F F"
C        0.09010000       1.57660000       0.26540000
C       -0.06110000       0.07380000       0.01270000
C        0.60730000      -0.42650000      -1.27980000
O        2.00730000      -0.07490000      -1.27200000
C        0.54160000      -1.96290000      -1.43240000
C        0.37280000      -2.25090000      -2.94560000
C       -0.52870000      -3.45060000      -3.25740000
C       -0.15050000      -0.92880000      -3.46250000
C       -0.05020000       0.04840000      -2.56450000
H        1.14610000       1.85530000       0.33520000
H       -0.37020000       2.17590000      -0.52830000
H       -0.38810000       1.86340000       1.20660000
H        0.38000000      -0.47770000       0.85230000
H       -1.12420000      -0.19450000      -0.02000000
H        2.08560000       0.83970000      -1.56080000
H        1.43070000      -2.42600000      -0.99810000
H       -0.33370000      -2.34350000      -0.89410000
H        1.35600000      -2.43860000      -3.40100000
H       -1.53150000      -3.30630000      -2.83980000
H       -0.63350000      -3.59990000      -4.33760000
H       -0.11680000      -4.37230000      -2.83300000
H       -0.53810000      -0.81580000      -4.47080000
H       -0.33920000       1.08230000      -2.72480000
