21
Properties=species:S:1:pos:R:3 gdb_105029=T pbc="F F F"
C        0.42280000      -1.24830000       1.67640000
C        0.05400000      -0.49450000       0.39160000
C       -1.38390000      -0.69340000      -0.08360000
C       -1.63200000      -0.83140000      -1.57360000
C       -1.75540000      -2.03240000      -0.67210000
C       -2.47450000       0.04420000       0.68980000
O       -2.56050000      -0.34040000       2.03690000
C       -2.27910000       1.54810000       0.59560000
O       -2.25390000       2.25120000       1.57740000
H        1.47120000      -1.07050000       1.93650000
H       -0.20520000      -0.93660000       2.51150000
H        0.28760000      -2.32720000       1.54740000
H        0.24760000       0.57830000       0.52970000
H        0.72530000      -0.81480000      -0.41450000
H       -2.54200000      -0.41470000      -1.99380000
H       -0.77420000      -0.76730000      -2.23370000
H       -0.97900000      -2.78800000      -0.72250000
H       -2.74530000      -2.42730000      -0.47140000
H       -3.43430000      -0.15780000       0.17560000
H       -2.54160000       0.48730000       2.54420000
H       -2.17060000       1.96470000      -0.42550000
