23
Properties=species:S:1:pos:R:3 gdb_121626=T pbc="F F F"
C       -0.26810000       1.46210000       0.39390000
C       -0.47010000      -0.05320000       0.47220000
C       -1.12530000      -0.62000000      -0.79370000
N       -1.32850000      -2.06260000      -0.76800000
C       -2.40530000      -2.57450000      -0.06410000
O       -3.25980000      -1.84860000       0.42660000
N       -2.46860000      -3.95340000       0.00420000
C       -3.46500000      -4.56070000       0.86650000
C       -1.51600000      -4.83260000      -0.63980000
H        0.19990000       1.84800000       1.30430000
H        0.37310000       1.73770000      -0.45150000
H       -1.22440000       1.98100000       0.26650000
H        0.49660000      -0.54970000       0.63360000
H       -1.10650000      -0.30620000       1.32640000
H       -2.10700000      -0.16200000      -0.93380000
H       -0.51680000      -0.38230000      -1.67470000
H       -0.49430000      -2.62390000      -0.82330000
H       -4.07480000      -5.28120000       0.30710000
H       -2.99880000      -5.08970000       1.70950000
H       -4.10620000      -3.76870000       1.24960000
H       -0.60770000      -5.00570000      -0.04020000
H       -1.98620000      -5.80590000      -0.80820000
H       -1.22340000      -4.43860000      -1.61690000
