16
Properties=species:S:1:pos:R:3 gdb_22328=T pbc="F F F"
C       -0.03070000       1.49920000       0.10910000
C       -0.00800000       0.01060000       0.00260000
C       -0.01910000      -0.74550000      -1.11780000
C        0.01180000      -2.18720000      -0.79440000
O        0.01070000      -3.11190000      -1.57350000
C        0.04620000      -2.30130000       0.73980000
C        0.03160000      -0.86380000       1.18370000
N        0.04840000      -0.37100000       2.36450000
O        0.08560000      -1.37390000       3.33120000
H        0.85030000       1.85670000       0.65240000
H       -0.05820000       1.97060000      -0.87530000
H       -0.90090000       1.82740000       0.68720000
H       -0.04670000      -0.38040000      -2.13670000
H       -0.81520000      -2.86400000       1.11300000
H        0.94090000      -2.83470000       1.07580000
H        0.09470000      -0.87340000       4.15490000
