19
Properties=species:S:1:pos:R:3 gdb_15156=T pbc="F F F"
C       -0.11690000       1.34210000      -0.05010000
N       -0.29260000      -0.08540000      -0.21090000
C        0.51050000      -0.68320000      -0.97240000
O        0.42930000      -2.01480000      -1.15510000
C        1.31630000      -2.57370000      -2.13070000
C        1.33840000      -4.06460000      -1.96090000
C        0.25620000      -4.90730000      -2.58350000
C        1.65160000      -4.93660000      -3.15200000
H        0.05870000       1.57600000       1.00640000
H        0.71620000       1.76230000      -0.63830000
H       -1.03740000       1.86180000      -0.34030000
H        1.32740000      -0.19390000      -1.52850000
H        0.96810000      -2.31130000      -3.14020000
H        2.32220000      -2.15020000      -2.00060000
H        1.71940000      -4.39390000      -0.99890000
H       -0.09640000      -5.77140000      -2.03250000
H       -0.51460000      -4.39760000      -3.15160000
H        1.82190000      -4.45230000      -4.10820000
H        2.26120000      -5.81800000      -2.98990000
