14
Properties=species:S:1:pos:R:3 gdb_14216=T pbc="F F F"
O       -0.18570000       1.31690000      -0.09050000
C        0.00760000      -0.04370000      -0.08730000
C        0.97360000      -0.88890000      -0.91650000
C        0.14580000      -2.09330000      -0.39380000
O        0.43990000      -2.14280000       1.02980000
C       -0.31390000      -0.94270000       1.16060000
C       -1.07600000      -1.09450000      -0.12270000
O       -2.37460000      -1.01140000      -0.52870000
H        0.49230000       1.72480000       0.46010000
H        0.82380000      -0.72520000      -1.98660000
H        2.03850000      -0.89740000      -0.66360000
H        0.14670000      -3.06550000      -0.88130000
H       -0.55870000      -0.54940000       2.13890000
H       -2.89260000      -1.66350000      -0.04190000
