16
Properties=species:S:1:pos:R:3 gdb_68734=T pbc="F F F"
O       -0.00610000       1.36000000       0.08740000
C        0.03160000      -0.00610000       0.01590000
C       -0.28380000      -0.83890000       1.20820000
C       -1.17950000      -1.02760000      -0.01740000
C       -2.57030000      -0.74470000      -0.01140000
C       -3.75100000      -0.50800000      -0.01500000
C       -0.42410000      -1.78250000      -1.08800000
N       -0.20800000      -0.85660000      -2.22810000
C        0.71050000      -0.81830000      -1.05620000
H       -0.27940000       1.68530000      -0.77990000
H        0.37480000      -1.64260000       1.52740000
H       -0.75860000      -0.29230000       2.01620000
H       -4.79150000      -0.29830000      -0.02080000
H       -0.37500000      -2.85650000      -1.22230000
H        0.26410000      -1.38630000      -2.96310000
H        1.77070000      -1.01300000      -1.16750000
