16
Properties=species:S:1:pos:R:3 gdb_22187=T pbc="F F F"
C       -0.16550000       1.21680000      -0.31800000
C       -0.01480000      -0.22070000      -0.17190000
C        0.11530000      -1.41310000      -0.04700000
C        0.22530000      -2.82320000       0.06860000
C       -0.76240000      -3.75050000      -0.63530000
C       -1.79820000      -3.09190000      -1.41450000
C       -2.66700000      -2.58070000      -2.06710000
N        1.18950000      -3.28220000       0.78960000
O        1.17610000      -4.67940000       0.81420000
H        0.70820000       1.65780000      -0.81080000
H       -1.04830000       1.46060000      -0.91860000
H       -0.27730000       1.70370000       0.65710000
H       -0.18190000      -4.43230000      -1.27000000
H       -1.21210000      -4.39720000       0.12900000
H       -3.43230000      -2.12190000      -2.64230000
H        1.93240000      -4.88060000       1.37560000
