16
Properties=species:S:1:pos:R:3 gdb_125709=T pbc="F F F"
C       -0.24630000       1.53680000       0.02740000
C        0.01970000       0.05540000      -0.00350000
N        0.14070000      -0.44940000      -1.19020000
O        0.38890000      -1.84330000      -1.24490000
C        0.50040000      -2.64270000      -0.15500000
N        0.70760000      -3.89730000      -0.24770000
C        0.36840000      -2.01600000       1.17080000
N        0.52530000      -2.86270000       2.20980000
C        0.12150000      -0.67910000       1.22110000
H        0.54390000       2.05780000       0.57890000
H       -0.29140000       1.93170000      -0.98820000
H       -1.19410000       1.74660000       0.53500000
H        0.77190000      -4.19030000      -1.22210000
H        0.60500000      -3.84230000       1.98030000
H        0.32130000      -2.57870000       3.15090000
H        0.00690000      -0.15760000       2.16460000
