17
Properties=species:S:1:pos:R:3 gdb_70770=T pbc="F F F"
C        0.01520000       1.43560000      -0.08600000
C        0.01060000      -0.05900000      -0.04650000
N        0.60830000      -0.93640000      -1.11100000
C        0.07060000      -1.92240000      -0.11050000
C        0.14380000      -3.34330000      -0.24080000
C        0.17950000      -4.54280000      -0.33140000
C        0.50640000      -1.00370000       1.09260000
N       -0.82420000      -0.98460000       1.77280000
C       -1.16480000      -1.03090000       0.31850000
H        1.03600000       1.81430000      -0.19580000
H       -0.57990000       1.81160000      -0.92530000
H       -0.41030000       1.83090000       0.84120000
H        0.01540000      -0.93440000      -1.94660000
H        0.22060000      -5.60070000      -0.41630000
H        1.46420000      -0.99960000       1.61280000
H       -1.01050000      -1.89040000       2.21070000
H       -2.18600000      -1.06090000      -0.06830000
