18
Properties=species:S:1:pos:R:3 gdb_67524=T pbc="F F F"
C       -0.01130000       1.51340000       0.01840000
C       -0.03880000       0.00280000      -0.00360000
C       -1.26160000      -0.68140000       0.64000000
C       -1.16300000      -2.18200000       0.57060000
C       -0.27740000      -1.43170000       1.52970000
N        0.89570000      -0.74990000       0.92760000
C        1.56920000      -1.45150000      -0.21130000
C        0.64430000      -0.70830000      -1.20230000
O        0.53190000      -0.66280000      -2.39020000
H        0.98900000       1.89210000      -0.21120000
H       -0.70910000       1.90920000      -0.72730000
H       -0.30300000       1.88720000       1.00460000
H       -2.17620000      -0.16170000       0.89640000
H       -1.98330000      -2.70450000       1.05300000
H       -0.78470000      -2.69050000      -0.31050000
H       -0.29780000      -1.61550000       2.59770000
H        2.62410000      -1.17180000      -0.30300000
H        1.49400000      -2.54350000      -0.22030000
