18
Properties=species:S:1:pos:R:3 gdb_106569=T pbc="F F F"
C        0.04390000       1.57170000      -0.08940000
C       -0.03660000       0.04370000       0.02250000
C        0.66630000      -0.50530000       1.23790000
N        2.15800000      -0.26840000       1.42360000
C        2.09360000      -1.38190000       2.44100000
C        1.11620000      -0.79540000       3.43100000
C        0.18740000      -0.22250000       2.64790000
C        1.05870000      -2.04090000       1.42990000
O        0.87340000      -3.07570000       0.88000000
H        1.08400000       1.90740000      -0.12710000
H       -0.46320000       1.92150000      -0.99330000
H       -0.42640000       2.05750000       0.77130000
H       -1.08440000      -0.27820000       0.06120000
H        0.38750000      -0.42250000      -0.87530000
H        2.64710000      -0.61290000       0.59090000
H        3.02000000      -1.84660000       2.76910000
H        1.14340000      -0.91830000       4.50330000
H       -0.74830000       0.24860000       2.91190000
