17
Properties=species:S:1:pos:R:3 gdb_65439=T pbc="F F F"
C       -0.18370000       1.42290000       0.33910000
C        0.05790000      -0.05320000       0.07660000
C        1.40560000      -0.52200000      -0.45870000
C        1.02930000      -0.85030000       0.95310000
N        1.71670000      -0.18940000       2.01680000
C        1.13060000       0.02670000       3.23390000
O       -0.03240000      -0.19050000       3.48190000
C       -1.09680000      -0.78620000      -0.38140000
N       -2.02150000      -1.37000000      -0.75870000
H        0.73360000       1.89920000       0.69090000
H       -0.50880000       1.92760000      -0.57480000
H       -0.95230000       1.55230000       1.10490000
H        1.42580000      -1.32630000      -1.18360000
H        2.14420000       0.25700000      -0.61670000
H        0.72270000      -1.86980000       1.16840000
H        2.71600000      -0.07400000       1.94300000
H        1.84910000       0.44110000       3.96870000
