20
Properties=species:S:1:pos:R:3 gdb_14264=T pbc="F F F"
C        0.03580000       1.57370000      -0.21860000
C        1.53590000       1.47700000       0.17880000
C        1.18570000       0.15570000       0.92390000
C       -0.08310000       0.03380000       0.02330000
C        0.12490000      -0.76230000      -1.23790000
C        1.23130000      -0.78020000      -1.98440000
C        2.53800000      -0.07370000      -1.69960000
C        2.48670000       1.31420000      -1.02180000
H       -0.54000000       2.14360000       0.51690000
H       -0.20110000       1.93710000      -1.22210000
H        1.90000000       2.29380000       0.80900000
H        1.90470000      -0.66600000       0.89740000
H        0.91040000       0.34600000       1.96510000
H       -0.99320000      -0.29870000       0.52840000
H       -0.72660000      -1.34940000      -1.57520000
H        1.22920000      -1.40090000      -2.87830000
H        3.16160000      -0.74240000      -1.08810000
H        3.09020000       0.03410000      -2.64050000
H        2.22000000       2.07080000      -1.77090000
H        3.50870000       1.55330000      -0.70330000
