18
Properties=species:S:1:pos:R:3 gdb_64799=T pbc="F F F"
C       -0.02640000       1.61690000      -0.64610000
C       -0.02860000       0.18490000      -0.14660000
C        1.23120000      -0.64190000      -0.22350000
C        0.71740000      -0.16720000       1.11400000
N       -1.24610000      -0.55040000      -0.38740000
C       -2.41110000      -0.29240000       0.28050000
N       -2.50130000       0.53230000       1.25580000
C       -3.54320000      -1.06940000      -0.21000000
N       -4.46730000      -1.66140000      -0.57480000
H        0.93190000       2.09730000      -0.42870000
H       -0.18580000       1.65550000      -1.72960000
H       -0.81670000       2.19100000      -0.15540000
H        1.13160000      -1.69710000      -0.45400000
H        2.11290000      -0.16980000      -0.64210000
H        1.24450000       0.63340000       1.61990000
H        0.26650000      -0.89860000       1.77270000
H       -1.32090000      -1.06420000      -1.25130000
H       -3.44380000       0.54150000       1.63740000
