20
Properties=species:S:1:pos:R:3 gdb_91517=T pbc="F F F"
C       -0.03170000       1.62920000      -0.04430000
C        0.06410000       0.11230000       0.04140000
C        1.11730000      -0.66410000      -0.79880000
N        1.66690000      -1.38480000       0.41030000
C        2.18260000      -0.33800000       1.28530000
C        0.70680000      -0.53570000       1.26900000
C       -0.07780000      -1.10810000       2.39760000
C        0.61450000      -2.10450000       3.30680000
O       -1.23560000      -0.77740000       2.55150000
H        0.93790000       2.11330000       0.11210000
H       -0.40130000       1.93950000      -1.02770000
H       -0.72630000       2.00950000       0.71110000
H       -0.92800000      -0.32170000      -0.10230000
H        0.69600000      -1.38220000      -1.50390000
H        1.87610000      -0.06090000      -1.30940000
H        2.73290000      -0.72050000       2.13890000
H        2.59970000       0.56790000       0.84980000
H        1.21920000      -2.80560000       2.72420000
H        1.28590000      -1.57940000       3.99630000
H       -0.13590000      -2.63770000       3.89160000
