19
Properties=species:S:1:pos:R:3 gdb_41591=T pbc="F F F"
C        0.33350000       1.59430000      -0.37370000
C        1.66380000       1.49260000       0.44030000
C        1.36750000       0.00320000       0.75050000
C        0.02660000       0.10570000      -0.06990000
C        0.59050000      -0.93150000      -1.09260000
O        0.96740000      -0.49230000      -2.38360000
C        2.33240000      -0.11690000      -2.35460000
O        2.92990000      -0.64210000      -1.18320000
C        1.90610000      -1.03200000      -0.28780000
H       -0.39160000       2.27980000       0.06990000
H        0.42220000       1.83460000      -1.43520000
H        2.59180000       1.66890000      -0.10750000
H        1.67190000       2.12200000       1.33280000
H        1.41400000      -0.31340000       1.79290000
H       -0.95360000      -0.13230000       0.34440000
H       -0.01300000      -1.83640000      -1.19900000
H        2.83660000      -0.54110000      -3.23180000
H        2.42500000       0.97920000      -2.36920000
H        2.17140000      -2.00320000       0.13710000
