19
Properties=species:S:1:pos:R:3 gdb_50157=T pbc="F F F"
O       -0.80600000       0.60080000      -0.13050000
C        0.31520000       0.69930000       0.29450000
C        1.30990000       1.74370000      -0.16680000
C        1.47610000       2.94750000       0.79780000
C        2.93800000       2.46250000       0.91840000
C        4.10650000       3.41090000       0.57360000
C        4.41180000       3.50860000       2.09460000
C        3.57690000       2.21330000       2.30010000
O        2.67120000       1.33740000       0.05590000
H        0.71260000       0.03470000       1.09630000
H        1.10830000       2.00570000      -1.21120000
H        1.32750000       3.92660000       0.34120000
H        0.89180000       2.88470000       1.71890000
H        4.88510000       2.85960000       0.03860000
H        3.87550000       4.32640000       0.02260000
H        5.45980000       3.47960000       2.39620000
H        3.94070000       4.38050000       2.55540000
H        2.91130000       2.14630000       3.16470000
H        4.20380000       1.31770000       2.26240000
