15
Properties=species:S:1:pos:R:3 gdb_33854=T pbc="F F F"
C       -0.01460000      -1.19080000       0.03370000
C        0.04100000       0.00940000      -0.00620000
C        0.07170000       1.44230000      -0.08540000
C       -0.95580000       2.18140000      -0.95470000
C       -0.27090000       3.47590000      -1.38240000
O        0.06700000       4.37100000      -0.32320000
C        1.09560000       3.52140000      -0.82940000
C        1.30980000       2.26480000      -0.00550000
O        0.43950000       2.14790000       1.11240000
H       -0.05540000      -2.25110000       0.08120000
H       -1.19340000       1.57600000      -1.83500000
H       -1.88410000       2.36330000      -0.40550000
H       -0.55210000       3.95130000      -2.31930000
H        1.93700000       4.00950000      -1.31210000
H        2.30010000       1.83250000       0.10390000
