22
Properties=species:S:1:pos:R:3 gdb_114525=T pbc="F F F"
C        0.25660000       1.70770000      -0.30650000
O       -0.29870000       0.43000000      -0.53020000
C        0.56700000      -0.43250000      -1.22040000
C        1.71920000      -1.11810000      -0.42680000
N        1.20580000      -2.47730000      -0.78170000
C        0.26910000      -3.02630000       0.25310000
C       -0.97420000      -2.58120000      -0.56600000
C       -2.11620000      -1.86330000       0.13990000
C        0.02330000      -1.85320000      -1.50910000
H        1.15560000       1.66190000       0.32640000
H        0.52690000       2.20020000      -1.25360000
H       -0.50120000       2.30750000       0.20260000
H        0.92470000       0.06200000      -2.13700000
H        2.72760000      -0.93970000      -0.81320000
H        1.70910000      -0.90520000       0.64860000
H        0.38720000      -4.10400000       0.40360000
H        0.36270000      -2.53090000       1.22810000
H       -1.38100000      -3.43650000      -1.11590000
H       -1.75510000      -1.02330000       0.73410000
H       -2.84290000      -1.47190000      -0.58000000
H       -2.64500000      -2.56100000       0.79960000
H       -0.08510000      -2.08060000      -2.57400000
