25
Properties=species:S:1:pos:R:3 gdb_87135=T pbc="F F F"
C       -0.06140000       1.30840000      -0.38740000
C        0.28670000      -0.13580000      -0.09770000
C        1.71000000      -0.58620000       0.13150000
C        0.70690000      -0.65880000       1.26440000
C        0.90510000       0.31650000       2.41650000
C        0.13010000      -1.99310000       1.70220000
C       -1.29340000      -1.90930000       2.23360000
C        0.49340000      -3.27410000       0.98820000
C        1.05200000      -2.99320000       2.36270000
H        0.58260000       2.00500000       0.15620000
H        0.05320000       1.52590000      -1.45550000
H       -1.09870000       1.53450000      -0.11460000
H       -0.31480000      -0.84610000      -0.66140000
H        2.05850000      -1.48860000      -0.35720000
H        2.47150000       0.18460000       0.20950000
H        1.39900000       1.23610000       2.09370000
H       -0.04430000       0.60090000       2.88250000
H        1.53120000      -0.13780000       3.19250000
H       -1.97190000      -1.50680000       1.47260000
H       -1.66300000      -2.89830000       2.52180000
H       -1.36270000      -1.26480000       3.11610000
H       -0.28310000      -4.02660000       0.89620000
H        1.17800000      -3.25290000       0.14870000
H        2.10500000      -2.73960000       2.42640000
H        0.67990000      -3.56970000       3.20350000
