16
Properties=species:S:1:pos:R:3 gdb_47186=T pbc="F F F"
N        0.27800000       0.42640000       1.30540000
C        0.07830000      -0.00190000       0.12920000
O        1.05530000       0.20720000      -0.83870000
C        1.39610000      -0.62810000      -1.87390000
O        2.17670000      -0.22650000      -2.68660000
C        0.77140000      -2.00310000      -1.88910000
C       -0.71330000      -1.96070000      -2.27960000
C       -1.60130000      -1.31970000      -1.25690000
C       -1.24200000      -0.54250000      -0.23210000
H        1.21900000       0.81630000       1.38540000
H        1.33660000      -2.58990000      -2.61430000
H        0.87540000      -2.47070000      -0.90350000
H       -0.83340000      -1.46420000      -3.25300000
H       -1.05920000      -2.98960000      -2.43680000
H       -2.65790000      -1.56180000      -1.34520000
H       -1.99460000      -0.23720000       0.48680000
