15
Properties=species:S:1:pos:R:3 gdb_4755=T pbc="F F F"
C       -0.01250000       1.45610000       0.01340000
N       -0.02380000       0.00610000      -0.00040000
C        0.01290000      -0.77760000      -1.14060000
C        0.04770000      -2.09200000      -0.76430000
C        0.03360000      -2.12080000       0.66510000
C        0.05110000      -3.28920000       1.52980000
O        0.08610000      -4.44070000       1.14890000
C       -0.00840000      -0.80150000       1.09310000
H        0.97890000       1.84910000      -0.23630000
H       -0.73660000       1.84520000      -0.70740000
H       -0.28950000       1.80910000       1.00810000
H        0.00870000      -0.31530000      -2.11530000
H        0.07110000      -2.95470000      -1.41040000
H        0.03030000      -3.05090000       2.61910000
H       -0.02820000      -0.38900000       2.09040000
