14
Properties=species:S:1:pos:R:3 gdb_34291=T pbc="F F F"
N        0.04790000      -1.11480000       0.03730000
C        0.04290000       0.03950000       0.01280000
C       -0.03180000       1.48780000      -0.00850000
C       -0.65850000       2.17590000       1.26670000
O       -0.11030000       3.48770000       1.17360000
C        0.73540000       3.43640000       0.00050000
O        1.25760000       2.12410000       0.02850000
C       -0.20020000       3.40280000      -1.20420000
C       -0.70020000       2.16790000      -1.20490000
H       -1.75120000       2.19650000       1.23790000
H       -0.30720000       1.68430000       2.17830000
H        1.51400000       4.19080000       0.07540000
H       -0.48200000       4.25220000      -1.80930000
H       -1.49060000       1.73030000      -1.79640000
