18
Properties=species:S:1:pos:R:3 gdb_7532=T pbc="F F F"
C       -0.10360000       1.49870000      -0.04380000
C        0.05840000      -0.00160000       0.05400000
C        1.38570000      -0.68490000      -0.21270000
C        0.78960000      -0.68300000       1.17540000
C        1.42120000       0.06400000       2.32480000
O        0.14690000      -1.88560000       1.60260000
C        0.92660000      -2.97210000       1.77750000
O        0.49930000      -4.01110000       2.18450000
H        0.80290000       2.03110000       0.25850000
H       -0.32270000       1.79080000      -1.07610000
H       -0.92690000       1.85380000       0.58520000
H       -0.80540000      -0.56880000      -0.28160000
H        1.38040000      -1.61020000      -0.77760000
H        2.25840000      -0.06110000      -0.38050000
H        1.85380000       1.01010000       1.99270000
H        0.67550000       0.27670000       3.09720000
H        2.22270000      -0.52600000       2.78230000
H        1.98110000      -2.79550000       1.49560000
