20
Properties=species:S:1:pos:R:3 gdb_41854=T pbc="F F F"
C       -0.00530000       1.42050000      -0.11330000
C        1.43680000       1.94610000      -0.02320000
N        2.20310000       1.39130000       1.10200000
C        1.78130000       1.86180000       2.42470000
C        0.60800000       1.11900000       3.02440000
C        0.09350000       0.02990000       2.45320000
C        0.66010000      -0.49560000       1.15140000
C        2.12810000      -0.07340000       1.03790000
O       -0.06010000       0.00320000       0.00650000
H       -0.63210000       1.89490000       0.65570000
H       -0.43840000       1.65400000      -1.09130000
H        1.97490000       1.67260000      -0.93980000
H        1.43410000       3.03990000       0.04390000
H        2.63780000       1.77800000       3.11360000
H        1.55750000       2.93380000       2.36120000
H        0.21960000       1.49480000       3.96920000
H       -0.75790000      -0.48490000       2.88850000
H        0.54720000      -1.58240000       1.08960000
H        2.54230000      -0.40890000       0.08100000
H        2.72570000      -0.50750000       1.84750000
