18
Properties=species:S:1:pos:R:3 gdb_92737=T pbc="F F F"
C       -0.06100000       1.51340000       0.02820000
C        0.02100000      -0.02570000      -0.02060000
C        0.79830000      -0.53220000      -1.24620000
N        2.23430000      -0.31140000      -1.14330000
C        2.74610000      -0.33080000       0.00910000
C        4.20500000      -0.14620000       0.27860000
O        2.06490000      -0.56280000       1.20260000
C        0.68490000      -0.53780000       1.24050000
O        0.13320000      -0.86930000       2.24720000
H        0.93290000       1.96950000       0.01310000
H       -0.61160000       1.87980000      -0.84330000
H       -0.58120000       1.84690000       0.92970000
H       -0.99350000      -0.43290000      -0.01940000
H        0.62400000      -1.60750000      -1.39200000
H        0.43310000      -0.03410000      -2.15040000
H        4.36360000       0.71230000       0.93910000
H        4.60620000      -1.02550000       0.79240000
H        4.73320000       0.00630000      -0.66160000
