20
Properties=species:S:1:pos:R:3 gdb_86141=T pbc="F F F"
C       -0.01460000       1.57060000      -0.05490000
C        0.07150000       0.04660000      -0.01190000
C        0.81800000      -0.56250000      -1.22180000
C        1.43220000      -1.84570000      -0.66500000
O        2.63240000      -2.23000000      -1.28430000
C        1.65300000      -1.50610000       0.80930000
O        2.43320000      -2.09370000       1.53780000
N        0.84830000      -0.45680000       1.12770000
C        0.65990000      -0.01200000       2.49090000
H        0.98560000       2.01570000      -0.06430000
H       -0.53680000       1.88210000      -0.96470000
H       -0.56700000       1.97480000       0.79850000
H       -0.95220000      -0.35840000       0.04060000
H        0.15850000      -0.71790000      -2.07770000
H        1.63330000       0.10170000      -1.52770000
H        0.69290000      -2.66630000      -0.69900000
H        3.17130000      -2.61280000      -0.57600000
H        1.31270000      -0.61620000       3.12360000
H        0.92460000       1.04340000       2.61220000
H       -0.38100000      -0.14770000       2.81180000
