13
Properties=species:S:1:pos:R:3 gdb_21592=T pbc="F F F"
N        0.00120000       1.42990000       0.16940000
C       -0.02600000       0.03950000       0.05030000
C       -1.10870000      -0.81650000       0.03480000
N       -0.58860000      -2.07760000      -0.02390000
N        0.74160000      -2.11520000      -0.04330000
C        1.10890000      -0.82290000      -0.00160000
C        2.45900000      -0.40230000      -0.01570000
C        3.58230000       0.03340000      -0.03470000
H        0.90270000       1.81180000      -0.08810000
H       -0.73400000       1.90010000      -0.34100000
H       -2.17050000      -0.63480000       0.06430000
H       -1.09670000      -2.94490000      -0.05290000
H        4.58220000       0.39030000      -0.04210000
