17
Properties=species:S:1:pos:R:3 gdb_128683=T pbc="F F F"
C        0.05920000       1.51160000      -0.18490000
O        0.59060000       0.23320000       0.14550000
C        0.79260000      -0.59810000      -0.89180000
N        0.53260000      -0.26480000      -2.14980000
N        0.89400000      -1.37030000      -2.85040000
C        1.33740000      -2.37790000      -2.06620000
C        1.80200000      -3.66710000      -2.66450000
O        1.18320000      -3.80230000      -3.93870000
C        1.29670000      -1.91480000      -0.76680000
H        0.72980000       2.05440000      -0.85960000
H       -0.91770000       1.41850000      -0.67110000
H       -0.04030000       2.04910000       0.75950000
H        0.71950000      -1.42680000      -3.83850000
H        2.89920000      -3.66200000      -2.76350000
H        1.54120000      -4.49900000      -1.99390000
H        1.62880000      -4.50680000      -4.41720000
H        1.58270000      -2.42960000       0.13480000
