22
Properties=species:S:1:pos:R:3 gdb_101160=T pbc="F F F"
C        0.31170000       1.40380000      -0.06290000
C        0.16530000      -0.07040000      -0.37960000
C        0.74800000      -0.72260000      -1.59890000
C        1.56010000       0.01730000      -2.63620000
O        2.59850000      -0.81790000      -3.17700000
C        0.69290000       0.53300000      -3.79050000
O        1.49390000       1.09740000      -4.80430000
N        1.24910000      -1.04520000      -0.26260000
C        2.58910000      -0.63790000       0.13950000
H        1.23020000       1.84910000      -0.44760000
H       -0.52980000       1.95960000      -0.48970000
H        0.29300000       1.56280000       1.02090000
H       -0.78750000      -0.47330000      -0.03460000
H        0.17610000      -1.54270000      -2.04350000
H        2.09740000       0.86710000      -2.20940000
H        2.21130000      -1.68220000      -3.36130000
H        0.07620000      -0.29920000      -4.17760000
H        0.00740000       1.30970000      -3.43410000
H        2.25450000       0.50570000      -4.88150000
H        2.88720000       0.38020000      -0.14520000
H        2.66190000      -0.71660000       1.22880000
H        3.31010000      -1.32940000      -0.30480000
