17
Properties=species:S:1:pos:R:3 gdb_6406=T pbc="F F F"
N       -0.15450000       0.83080000       0.04030000
H       -0.21980000      -0.17890000       0.13550000
H        0.83500000       1.03840000      -0.08580000
H       -1.11620000       1.95580000      -0.94640000
C       -0.63390000       1.46160000       1.28530000
C        0.14300000       0.98550000       2.51910000
O        0.14740000      -0.43150000       2.61940000
C       -0.60140000       2.98750000       1.12860000
C       -1.50850000       3.55240000       0.02440000
O       -1.62860000       2.79600000      -1.07380000
O       -2.05840000       4.61660000       0.13260000
H       -1.68020000       1.14490000       1.40410000
H        1.19450000       1.28580000       2.42980000
H       -0.25740000       1.45710000       3.42810000
H       -0.70820000      -0.71040000       2.96110000
H       -0.88990000       3.48320000       2.05780000
H        0.42760000       3.30690000       0.90800000
