19
Properties=species:S:1:pos:R:3 gdb_111138=T pbc="F F F"
C       -0.20980000       1.32370000       1.58030000
C       -0.20290000      -0.04440000       0.92370000
O       -1.50220000      -0.45700000       0.56740000
C        0.87780000      -0.35010000      -0.15250000
O        1.89220000      -0.28760000       0.92280000
C        0.80240000      -1.12210000       1.47520000
C        0.76640000      -1.87880000       0.11790000
C       -0.37320000      -2.77950000      -0.35910000
O        0.23380000      -3.98650000      -0.81510000
H        0.80400000       1.64510000       1.81690000
H       -0.67810000       2.05740000       0.91640000
H       -0.79070000       1.29710000       2.51160000
H       -2.09800000      -0.23110000       1.28870000
H        1.09560000       0.17880000      -1.08210000
H        0.93340000      -1.51090000       2.48710000
H        1.71980000      -2.37370000      -0.07560000
H       -1.08200000      -2.97630000       0.45550000
H       -0.94040000      -2.29220000      -1.16310000
H       -0.46540000      -4.56700000      -1.12990000
