18
Properties=species:S:1:pos:R:3 gdb_57950=T pbc="F F F"
C        0.09220000       1.44780000       0.21830000
N       -0.01150000       0.00970000       0.03870000
C        1.22510000      -0.71300000      -0.18760000
C       -1.26610000      -0.56140000       0.06410000
O       -2.29500000       0.07650000       0.07310000
N       -1.24420000      -1.96960000       0.12640000
C       -2.30430000      -2.79950000      -0.26910000
N       -2.16980000      -4.08040000       0.25970000
O       -3.17900000      -2.48150000      -1.03350000
H        0.50720000       1.92540000      -0.67830000
H       -0.90600000       1.84180000       0.40000000
H        0.74390000       1.68720000       1.06830000
H        1.73240000      -0.99870000       0.74700000
H        1.05040000      -1.60920000      -0.78630000
H        1.91390000      -0.07580000      -0.75150000
H       -0.42540000      -2.42450000       0.49420000
H       -1.83110000      -4.15770000       1.20770000
H       -2.97870000      -4.65400000       0.07020000
