20
Properties=species:S:1:pos:R:3 gdb_19194=T pbc="F F F"
C       -0.16660000       1.61440000      -0.04710000
C        0.03020000       0.10540000      -0.01690000
C        1.17770000      -0.60430000      -0.81130000
C        2.44800000       0.05670000      -0.24650000
C        2.08320000       0.03940000       1.28000000
C        0.69810000      -0.62710000       1.19510000
C        1.00160000      -1.79030000       0.19380000
O       -0.00640000      -2.73770000      -0.05790000
H        0.74840000       2.16780000       0.17970000
H       -0.51160000       1.93950000      -1.03510000
H       -0.92540000       1.92000000       0.68200000
H       -0.93300000      -0.36190000      -0.25250000
H        1.12210000      -0.76220000      -1.88970000
H        3.34460000      -0.52930000      -0.46830000
H        2.61120000       1.06620000      -0.63260000
H        2.78540000      -0.55600000       1.87050000
H        2.04900000       1.03940000       1.72000000
H        0.16170000      -0.80770000       2.12810000
H        1.90040000      -2.37880000       0.40200000
H       -0.83170000      -2.28190000      -0.24940000
