18
Properties=species:S:1:pos:R:3 gdb_62573=T pbc="F F F"
C        0.05630000       1.54780000      -0.00260000
C        0.06990000       0.03840000       0.07010000
O       -1.10250000      -0.55600000      -0.41290000
C        1.33300000      -0.82310000      -0.21470000
C        2.51860000      -0.13530000       0.42430000
O        3.57180000       0.31140000       0.06380000
N        1.89990000      -0.15640000       1.69080000
C        0.67610000      -0.78200000       1.17230000
C       -0.02370000      -1.85000000       1.95470000
H        0.96700000       1.99220000       0.40210000
H       -0.02920000       1.87460000      -1.04580000
H       -0.80520000       1.94090000       0.54670000
H       -1.22730000      -0.27630000      -1.32670000
H        1.31510000      -1.60000000      -0.96590000
H        1.92030000       0.62570000       2.33650000
H       -0.47520000      -1.43330000       2.86270000
H       -0.82070000      -2.29440000       1.35670000
H        0.68230000      -2.62930000       2.25610000
