22
Properties=species:S:1:pos:R:3 gdb_109655=T pbc="F F F"
C       -1.51620000       0.26710000      -3.47170000
C       -0.82890000      -0.33550000      -2.23840000
C       -1.83520000      -0.80830000      -1.20580000
N       -2.45210000      -2.12320000      -1.18410000
C       -2.11090000      -3.14120000      -2.16730000
C       -1.48920000      -1.79820000      -0.11020000
C       -0.12070000      -2.43280000       0.01580000
C       -2.19280000      -1.56940000       1.19300000
O       -1.67690000      -1.65940000       2.27920000
H       -0.77750000       0.63820000      -4.18840000
H       -2.13850000      -0.47440000      -3.98250000
H       -2.16270000       1.10560000      -3.19210000
H       -0.16450000      -1.14540000      -2.54950000
H       -0.18890000       0.42240000      -1.76930000
H       -2.54160000      -0.01940000      -0.93590000
H       -1.06440000      -3.15410000      -2.49920000
H       -2.34150000      -4.12400000      -1.74500000
H       -2.74600000      -2.99880000      -3.04750000
H        0.47650000      -2.36040000      -0.89280000
H        0.42050000      -1.94140000       0.82800000
H       -0.20950000      -3.49070000       0.28470000
H       -3.26410000      -1.29620000       1.06740000
