17
Properties=species:S:1:pos:R:3 gdb_28417=T pbc="F F F"
C        0.04860000       1.49680000       0.02340000
C        0.05600000      -0.01210000       0.01570000
C        0.04760000      -0.72870000      -1.18400000
C        0.05440000      -2.12150000      -1.19930000
O        0.04650000      -2.84950000      -2.35840000
C        0.06980000      -2.82000000       0.00730000
C        0.07820000      -2.12240000       1.20690000
C        0.07140000      -0.72860000       1.21930000
O        0.08050000      -0.11300000       2.44350000
H        0.93620000       1.91040000       0.52110000
H        0.03670000       1.89440000      -0.99390000
H       -0.83320000       1.90160000       0.53840000
H        0.03560000      -0.18070000      -2.12400000
H        0.03630000      -2.24410000      -3.10630000
H        0.07500000      -3.90360000      -0.00950000
H        0.09020000      -2.64800000       2.15510000
H        0.07440000       0.84050000       2.32000000
