17
Properties=species:S:1:pos:R:3 gdb_77535=T pbc="F F F"
C        0.01800000       1.43180000       0.16510000
C       -0.04980000      -0.04220000      -0.06150000
C        0.62500000      -0.93620000      -1.12360000
C        0.00650000      -1.86970000      -0.05750000
O        0.52250000      -0.93980000       1.00030000
C        0.14740000      -3.27910000       0.12390000
C        0.23450000      -4.47080000       0.25760000
C       -1.29230000      -0.98670000      -0.08210000
O       -2.11360000      -1.00260000       1.02800000
H        1.04940000       1.75270000       0.33830000
H       -0.37070000       1.96560000      -0.70780000
H       -0.58680000       1.70970000       1.03380000
H        0.19780000      -0.96030000      -2.12940000
H        1.71440000      -0.91410000      -1.11770000
H        0.31420000      -5.52310000       0.37990000
H       -1.90540000      -1.01770000      -0.98550000
H       -1.50900000      -1.00490000       1.78600000
