13
Properties=species:S:1:pos:R:3 gdb_131437=T pbc="F F F"
O        0.09360000       1.34520000       0.08700000
C        0.07420000       0.00450000       0.08470000
N        0.07650000      -0.66360000      -1.05230000
O        0.05260000      -2.05670000      -0.70180000
C        0.03830000      -2.07980000       0.62930000
C        0.05000000      -0.84220000       1.22750000
C        0.03180000      -1.07200000       2.64240000
C        0.01030000      -2.43300000       2.80730000
N        0.01420000      -3.06680000       1.55520000
H        0.10750000       1.63690000      -0.83530000
H        0.03400000      -0.34280000       3.43600000
H       -0.00770000      -3.02780000       3.70590000
H        0.00190000      -4.05770000       1.39110000
