26
Properties=species:S:1:pos:R:3 gdb_102565=T pbc="F F F"
C       -0.17930000       0.76560000       2.19410000
C        0.05050000      -0.63790000       1.62260000
C        0.27090000      -0.69580000       0.09400000
C        1.54980000       0.06090000      -0.32120000
C        1.81930000       0.10970000      -1.82830000
C        0.33680000      -2.15300000      -0.35180000
C       -0.84670000      -3.05920000      -0.30260000
N       -0.24550000      -2.70740000      -1.58330000
C       -1.04800000      -1.87870000      -2.46940000
H        0.70080000       1.40680000       2.08990000
H       -1.01570000       1.26510000       1.69150000
H       -0.41910000       0.71360000       3.26090000
H        0.91060000      -1.10230000       2.12450000
H       -0.81420000      -1.26470000       1.86860000
H       -0.59110000      -0.21070000      -0.38320000
H        1.49870000       1.08640000       0.05970000
H        2.40540000      -0.40770000       0.18550000
H        1.00700000       0.61680000      -2.36040000
H        2.74280000       0.65850000      -2.03900000
H        1.92330000      -0.89290000      -2.25400000
H        1.30250000      -2.61040000      -0.12920000
H       -0.75070000      -4.09540000       0.01330000
H       -1.80700000      -2.60280000      -0.05920000
H       -1.70030000      -1.15240000      -1.95820000
H       -0.39600000      -1.33110000      -3.15590000
H       -1.68990000      -2.53680000      -3.06440000
