19
Properties=species:S:1:pos:R:3 gdb_66723=T pbc="F F F"
C       -0.05950000       1.47640000       0.08480000
C        0.01120000      -0.01310000       0.00730000
C        0.90240000      -0.97610000      -0.83880000
C       -0.20360000      -2.01850000      -0.83700000
C        0.84870000      -2.02450000       0.26380000
C       -0.05710000      -1.05680000       1.10490000
O       -0.16940000      -0.81380000       2.45020000
C       -1.11720000      -1.07010000       0.00100000
C       -2.59920000      -0.89710000       0.06470000
H        0.90820000       1.90630000       0.36980000
H       -0.35250000       1.91920000      -0.87460000
H       -0.78990000       1.79050000       0.83740000
H        1.68100000      -0.78800000      -1.56780000
H       -0.43440000      -2.78790000      -1.56370000
H        1.57290000      -2.78630000       0.52260000
H       -0.68340000      -1.52560000       2.84990000
H       -2.86820000      -0.14960000       0.81890000
H       -3.01330000      -0.56400000      -0.89470000
H       -3.10470000      -1.83320000       0.33380000
