20
Properties=species:S:1:pos:R:3 gdb_85811=T pbc="F F F"
C       -0.71690000       1.15570000      -0.11970000
C        0.04130000      -0.16000000      -0.14890000
C        1.37150000      -0.27030000      -0.94010000
O        1.99980000       0.99770000      -1.00470000
C        1.92910000      -1.19100000       0.17970000
C        0.80060000      -0.67610000       1.13950000
C        1.28370000       0.42570000       2.09370000
C        0.09290000      -1.71650000       1.87720000
N       -0.47550000      -2.54630000       2.44900000
H       -0.06880000       1.99200000       0.14780000
H       -1.14150000       1.36890000      -1.10610000
H       -1.54460000       1.10950000       0.59560000
H       -0.62030000      -0.96240000      -0.48850000
H        1.29630000      -0.71760000      -1.93910000
H        2.87940000       0.87760000      -1.37700000
H        1.82260000      -2.25160000      -0.05740000
H        2.95300000      -0.99210000       0.50630000
H        1.83350000       1.18250000       1.53150000
H        0.44350000       0.90390000       2.60440000
H        1.94640000       0.00210000       2.85430000
