18
Properties=species:S:1:pos:R:3 gdb_30168=T pbc="F F F"
C        0.16800000       1.47790000       0.09770000
C       -0.03190000      -0.03290000      -0.01960000
C        0.68200000      -0.62370000      -1.29940000
C        1.90180000      -1.25960000      -0.69750000
C        1.75340000      -1.26390000       0.64610000
N        0.56720000      -0.75360000       1.15960000
O        2.75190000      -1.87970000       1.29390000
C        3.61240000      -2.30190000       0.28720000
C        3.13050000      -1.95710000      -0.94010000
H        1.23520000       1.72520000       0.10030000
H       -0.30020000       1.99460000      -0.74650000
H       -0.28150000       1.86910000       1.01730000
H       -1.10220000      -0.25590000      -0.04550000
H        0.03330000      -1.35310000      -1.80050000
H        0.88510000       0.17180000      -2.02620000
H        0.67260000      -0.15430000       1.97200000
H        4.50180000      -2.80170000       0.62930000
H        3.61160000      -2.17150000      -1.88230000
