21
Properties=species:S:1:pos:R:3 gdb_118355=T pbc="F F F"
C        0.28970000       1.60950000       0.03540000
C       -0.05380000       0.14330000      -0.15880000
O        0.88470000      -0.41870000      -1.06550000
C        0.67280000      -1.78940000      -1.33320000
C       -0.55860000      -1.97920000      -2.22020000
O       -1.31420000      -2.91270000      -2.15260000
C        1.88530000      -2.32420000      -2.06230000
C        3.04390000      -2.88690000      -1.27900000
C        2.15190000      -3.80780000      -2.07080000
H        1.30490000       1.71540000       0.42780000
H        0.23210000       2.14700000      -0.91530000
H       -0.40690000       2.07330000       0.73990000
H       -0.01420000      -0.39790000       0.80060000
H       -1.08080000       0.03590000      -0.54420000
H        0.51280000      -2.36310000      -0.40630000
H       -0.68250000      -1.16780000      -2.97620000
H        2.12600000      -1.77050000      -2.96530000
H        4.04530000      -2.69330000      -1.64630000
H        2.96080000      -2.89990000      -0.19750000
H        1.46190000      -4.44510000      -1.52850000
H        2.53870000      -4.24920000      -2.98200000
