19
Properties=species:S:1:pos:R:3 gdb_105473=T pbc="F F F"
C        0.13190000       1.52410000      -0.12380000
C        0.08320000       0.06950000      -0.07400000
C        0.02000000      -1.13360000      -0.01670000
C       -0.00940000      -2.58460000       0.02410000
C        0.84840000      -3.17730000      -1.10780000
O        2.20280000      -2.79380000      -1.00900000
C        0.26780000      -3.27630000       1.38970000
O       -0.91350000      -4.09150000       1.25370000
C       -1.38530000      -3.29790000       0.15090000
H        0.96260000       1.91450000       0.47430000
H        0.26240000       1.88480000      -1.14980000
H       -0.79250000       1.96300000       0.26720000
H        0.82730000      -4.26950000      -1.03490000
H        0.40980000      -2.89140000      -2.07690000
H        2.22110000      -1.82900000      -1.00790000
H        1.18750000      -3.86710000       1.44550000
H        0.20440000      -2.60110000       2.25150000
H       -2.20690000      -2.63020000       0.43820000
H       -1.69300000      -3.91120000      -0.70480000
