18
Properties=species:S:1:pos:R:3 gdb_5330=T pbc="F F F"
C       -0.00330000       1.54880000      -0.01210000
C       -0.00950000       0.01670000       0.04610000
C        0.77240000      -0.52470000       1.24870000
N       -1.37950000      -0.50690000       0.02780000
C       -1.93580000      -1.30460000      -0.94960000
C       -3.22390000      -1.54500000      -0.54990000
N       -3.48110000      -0.91880000       0.64590000
C       -2.35840000      -0.30940000       0.95980000
H        1.02370000       1.91920000      -0.08440000
H       -0.56400000       1.90750000      -0.87920000
H       -0.45340000       1.97980000       0.88760000
H        0.45570000      -0.36540000      -0.86830000
H        0.34640000      -0.16530000       2.19050000
H        0.75720000      -1.61770000       1.26270000
H        1.81360000      -0.19180000       1.20220000
H       -1.36780000      -1.61330000      -1.81200000
H       -3.97750000      -2.13110000      -1.05360000
H       -2.19640000       0.28600000       1.84570000
