22
Properties=species:S:1:pos:R:3 gdb_6859=T pbc="F F F"
C        0.01380000       1.52770000       0.02460000
C       -0.04370000      -0.00590000      -0.00640000
C       -1.51090000      -0.46930000       0.04080000
C        0.67000000      -0.53280000      -1.27480000
C        0.89110000      -2.05220000      -1.23310000
C        1.54550000      -2.45250000       0.09050000
O        0.80590000      -1.97890000       1.20420000
C        0.71330000      -0.56510000       1.21590000
H        1.04720000       1.89160000       0.00050000
H       -0.50900000       1.95420000      -0.83860000
H       -0.46120000       1.92500000       0.92880000
H       -2.04720000      -0.17100000      -0.86680000
H       -1.58570000      -1.55420000       0.14500000
H       -2.02870000      -0.02040000       0.89580000
H        0.10390000      -0.24850000      -2.16990000
H        1.64740000      -0.03650000      -1.35410000
H       -0.06240000      -2.58220000      -1.33630000
H        1.52530000      -2.37080000      -2.06870000
H        1.59990000      -3.53980000       0.19890000
H        2.57640000      -2.05680000       0.13230000
H        1.72540000      -0.12380000       1.25380000
H        0.19720000      -0.30120000       2.14530000
