13
Properties=species:S:1:pos:R:3 gdb_11174=T pbc="F F F"
O        0.04410000       0.00260000       0.24780000
C       -0.03130000       1.19110000       0.19090000
C       -1.28640000       2.05850000       0.11860000
C       -0.76630000       3.45640000       0.49770000
C        0.71190000       3.37300000       0.03200000
O        1.07070000       1.99830000       0.17690000
C       -1.49200000       4.57150000      -0.09560000
N       -2.05900000       5.45640000      -0.57570000
H       -1.66700000       2.03520000      -0.90780000
H       -2.06380000       1.67130000       0.77630000
H       -0.78920000       3.56940000       1.58690000
H        0.81480000       3.67230000      -1.01650000
H        1.38580000       3.97260000       0.64510000
