21
Properties=species:S:1:pos:R:3 gdb_118546=T pbc="F F F"
C       -0.28640000       1.49540000       0.29750000
C        0.05910000       0.00550000       0.27080000
C        0.72300000      -0.44800000      -1.02800000
C        1.11540000      -1.93130000      -1.01940000
O        0.08910000      -2.80680000      -0.62060000
C       -0.79820000      -3.20510000      -1.65300000
O       -0.18670000      -0.19940000      -2.12420000
C        0.23590000       0.53190000      -3.17050000
O       -0.44100000       0.73960000      -4.13240000
H        0.60650000       2.11750000       0.16530000
H       -0.99540000       1.75040000      -0.49480000
H       -0.74120000       1.76970000       1.25360000
H        0.74460000      -0.23810000       1.09160000
H       -0.83620000      -0.60320000       0.42780000
H        1.64080000       0.13500000      -1.20230000
H        1.50760000      -2.20640000      -2.01150000
H        1.92730000      -2.05410000      -0.29170000
H       -1.41090000      -2.37500000      -2.02050000
H       -0.24790000      -3.63590000      -2.50290000
H       -1.44620000      -3.97500000      -1.22710000
H        1.26640000       0.91640000      -3.03600000
