17
Properties=species:S:1:pos:R:3 gdb_9124=T pbc="F F F"
C       -0.13850000       1.56340000      -0.02490000
C        0.10400000       0.04380000       0.01360000
C        0.79010000      -0.46420000      -1.16750000
C        1.35810000      -0.87700000      -2.14800000
C        2.04070000      -1.44200000      -3.30240000
O        2.29860000      -2.62930000      -3.40110000
N        2.35790000      -0.51160000      -4.25260000
C        3.04020000      -0.85600000      -5.48280000
H        0.80750000       2.10690000      -0.09590000
H       -0.75290000       1.83780000      -0.88660000
H       -0.65450000       1.88770000       0.88320000
H        0.69090000      -0.21670000       0.90370000
H       -0.85270000      -0.48290000       0.12150000
H        2.10080000       0.44530000      -4.07570000
H        2.43070000      -0.60990000      -6.35980000
H        4.00060000      -0.33480000      -5.56620000
H        3.21950000      -1.93150000      -5.46460000
