14
Properties=species:S:1:pos:R:3 gdb_2165=T pbc="F F F"
C       -0.05480000       1.40920000       0.03750000
N       -0.02890000      -0.03190000       0.12750000
C       -1.19790000      -0.85330000      -0.09700000
C       -0.57900000      -2.25710000       0.02930000
O        0.81860000      -2.06740000      -0.21600000
C        1.13100000      -0.74040000      -0.09090000
O        2.25200000      -0.31500000      -0.16330000
H        0.97350000       1.76490000       0.11670000
H       -0.47650000       1.74790000      -0.91960000
H       -0.65090000       1.83900000       0.84960000
H       -1.97820000      -0.67510000       0.65030000
H       -1.63350000      -0.67510000      -1.09260000
H       -0.70950000      -2.66540000       1.03760000
H       -0.96890000      -2.97090000      -0.69840000
