17
Properties=species:S:1:pos:R:3 gdb_5605=T pbc="F F F"
C       -0.02590000       1.42350000       0.06660000
N       -0.00870000      -0.02200000       0.03010000
C       -0.02530000      -0.78910000      -1.11360000
C       -0.00030000      -2.11220000      -0.74630000
C        0.03300000      -2.15550000       0.67480000
C        0.02690000      -0.85590000       1.12720000
C        0.05270000      -0.32100000       2.52390000
O        0.07840000      -1.42210000       3.41280000
H        0.86900000       1.82330000       0.55740000
H       -0.05340000       1.80430000      -0.95560000
H       -0.90760000       1.80120000       0.59710000
H       -0.05350000      -0.31710000      -2.08320000
H       -0.00530000      -2.95530000      -1.42000000
H        0.05840000      -3.02820000       1.30670000
H        0.93550000       0.32810000       2.67150000
H       -0.83150000       0.31670000       2.70830000
H        0.10170000      -1.07790000       4.30980000
