18
Properties=species:S:1:pos:R:3 gdb_15353=T pbc="F F F"
O       -0.12570000       1.32220000      -0.76690000
C        0.02320000       0.12630000      -0.01180000
C       -1.33540000      -0.51400000       0.10260000
C       -1.86700000      -1.40250000      -0.99630000
C       -1.53880000      -1.99190000       0.35040000
C       -0.38370000      -2.97290000       0.52210000
C       -0.79050000      -4.35520000       0.28430000
C       -1.14520000      -5.48770000       0.09380000
H        0.72190000       1.77700000      -0.77410000
H        0.73390000      -0.55850000      -0.50010000
H        0.42010000       0.34450000       0.99330000
H       -2.06080000       0.13880000       0.58060000
H       -2.90560000      -1.30920000      -1.29220000
H       -1.19140000      -1.62870000      -1.81600000
H       -2.38910000      -2.23710000       0.98000000
H        0.43550000      -2.71970000      -0.16060000
H        0.02930000      -2.88950000       1.53650000
H       -1.45090000      -6.48960000      -0.07860000
