19
Properties=species:S:1:pos:R:3 gdb_35125=T pbc="F F F"
C       -0.30630000      -1.16910000      -0.12420000
C       -0.06550000       0.00920000      -0.09290000
C        0.23440000       1.42790000      -0.03820000
C       -0.11440000       2.10450000       1.33110000
C        1.38210000       1.98350000       1.74160000
C        1.73960000       1.75520000       0.24920000
C        1.99700000       3.14770000       2.46760000
C        3.33450000       3.66780000       2.15840000
O        2.16130000       4.35990000       1.72270000
H       -0.52490000      -2.20730000      -0.16270000
H       -0.18360000       1.92760000      -0.91650000
H       -0.40190000       3.14870000       1.18410000
H       -0.85760000       1.60310000       1.95240000
H        1.54390000       1.07270000       2.32760000
H        2.46580000       0.97740000       0.00980000
H        2.02520000       2.69480000      -0.22930000
H        1.61950000       3.30930000       3.47980000
H        3.91470000       4.17080000       2.93060000
H        3.92040000       3.20380000       1.36620000
