20
Properties=species:S:1:pos:R:3 gdb_107252=T pbc="F F F"
C        0.24100000       1.15990000       0.45920000
C        1.25380000       1.41540000      -0.66640000
C        1.35140000       0.26690000      -1.62110000
O        1.99660000      -0.93500000      -1.18810000
C        2.44570000      -0.31890000      -2.39750000
C        1.45850000      -0.68740000      -3.55620000
N        0.40060000      -1.56570000      -2.98960000
C        0.33340000      -0.09890000      -2.79430000
C       -0.82980000       0.73820000      -3.22470000
H       -0.76820000       1.00980000       0.06220000
H        0.51430000       0.26400000       1.02360000
H        0.20640000       2.00590000       1.15190000
H        0.98160000       2.32300000      -1.21980000
H        2.24830000       1.59030000      -0.24080000
H        3.49460000      -0.05870000      -2.48060000
H        1.67490000      -0.65650000      -4.61630000
H       -0.23270000      -1.77970000      -3.76220000
H       -1.68140000       0.62350000      -2.54360000
H       -0.56750000       1.80150000      -3.25300000
H       -1.16400000       0.45340000      -4.22850000
