23
Properties=species:S:1:pos:R:3 gdb_110110=T pbc="F F F"
C       -0.02400000       1.53160000       0.42460000
C        0.01260000       0.13600000      -0.20970000
C       -1.34090000      -0.54330000      -0.17780000
C       -1.53350000      -2.02980000      -0.30080000
C       -0.39560000      -3.01530000      -0.47040000
C       -0.79790000      -4.43990000      -0.07030000
C       -1.80740000      -1.34460000       1.04150000
C       -0.93640000      -1.55000000       2.16050000
C       -0.21830000      -1.72160000       3.11210000
H        0.95500000       2.01750000       0.36660000
H       -0.74830000       2.17920000      -0.08220000
H       -0.30920000       1.47030000       1.47930000
H        0.34830000       0.21160000      -1.25220000
H        0.75440000      -0.47530000       0.31220000
H       -2.13120000       0.05810000      -0.62320000
H       -2.44080000      -2.33150000      -0.82080000
H       -0.06780000      -3.00330000      -1.51810000
H        0.46530000      -2.70460000       0.12840000
H       -1.08080000      -4.48010000       0.98620000
H       -1.65150000      -4.79200000      -0.66040000
H        0.02730000      -5.14170000      -0.22630000
H       -2.85340000      -1.23140000       1.31220000
H        0.41130000      -1.87280000       3.95330000
