13
Properties=species:S:1:pos:R:3 gdb_4950=T pbc="F F F"
N       -0.09300000       1.22540000      -0.43130000
C       -0.00840000       0.01400000      -0.05110000
N       -1.13300000      -0.68350000       0.33710000
C       -1.09120000      -2.00020000       0.75940000
C        0.06640000      -2.65760000       0.80570000
O        1.25620000      -2.06300000       0.44030000
C        1.28380000      -0.76350000       0.01420000
N        2.36220000      -0.19780000      -0.32570000
H        0.84120000       1.55610000      -0.67350000
H       -2.00190000      -0.17450000       0.29870000
H       -2.02580000      -2.46070000       1.04400000
H        0.19590000      -3.68060000       1.11940000
H        3.15420000      -0.83460000      -0.23350000
