18
Properties=species:S:1:pos:R:3 gdb_111739=T pbc="F F F"
C        0.11490000       0.85720000       0.50190000
O       -0.28830000       0.06450000      -0.60470000
C       -1.44170000      -0.65410000      -0.37130000
C       -1.60540000      -2.00320000      -0.96120000
C       -0.30050000      -2.80720000      -0.86820000
N       -0.13790000      -2.47380000       0.58400000
C       -1.45140000      -1.83140000       0.59260000
C       -2.43920000      -2.05510000       1.64280000
O       -2.25070000      -2.78710000       2.59040000
H        1.01820000       1.38820000       0.19530000
H       -0.65720000       1.59250000       0.77160000
H        0.33850000       0.22820000       1.37160000
H       -2.36080000      -0.06230000      -0.33440000
H       -2.48050000      -2.28490000      -1.53340000
H       -0.47410000      -3.87220000      -1.04370000
H        0.52590000      -2.45850000      -1.49320000
H       -0.16720000      -3.30130000       1.17180000
H       -3.39680000      -1.50440000       1.50850000
