15
Properties=species:S:1:pos:R:3 gdb_33946=T pbc="F F F"
C       -0.00870000      -1.20750000      -0.07480000
C        0.04700000      -0.00900000      -0.00090000
C        0.07580000       1.41560000       0.13720000
O        0.28070000       2.21260000      -1.04070000
C        1.28060000       2.27150000      -0.02940000
C        1.19600000       3.46730000       0.91370000
C       -0.14860000       3.32780000       1.62250000
O       -1.29150000       3.37910000       0.76590000
C       -0.82280000       2.09820000       1.17050000
H       -0.04990000      -2.26570000      -0.15560000
H        2.24820000       1.86210000      -0.31090000
H        2.00970000       3.41710000       1.64600000
H        1.28170000       4.41730000       0.37700000
H       -0.29050000       3.75820000       2.61110000
H       -1.49330000       1.49560000       1.77470000
