21
Properties=species:S:1:pos:R:3 gdb_40049=T pbc="F F F"
C        0.03060000       1.52910000       0.01470000
C        1.31650000       0.73250000      -0.01810000
C       -0.00900000       0.02770000       0.02050000
C       -0.45340000      -0.82330000       1.22580000
C       -1.15600000      -1.99160000       0.49380000
C       -2.51750000      -1.52050000      -0.06740000
C       -2.05610000      -0.65280000      -1.27780000
C       -0.52000000      -0.79230000      -1.16760000
O       -0.36200000      -2.13890000      -0.69490000
H       -0.22460000       2.05560000       0.92890000
H       -0.26780000       2.04980000      -0.89060000
H        1.88440000       0.71630000      -0.94330000
H        1.92850000       0.71390000       0.87850000
H        0.40600000      -1.18710000       1.79650000
H       -1.12100000      -0.29350000       1.91190000
H       -1.17640000      -2.93580000       1.03820000
H       -3.11400000      -2.37500000      -0.39480000
H       -3.10270000      -0.96090000       0.66680000
H       -2.41210000      -1.06730000      -2.22380000
H       -2.38660000       0.38650000      -1.21500000
H        0.03380000      -0.65700000      -2.09770000
