17
Properties=species:S:1:pos:R:3 gdb_69800=T pbc="F F F"
O        0.05520000       1.40630000      -0.04900000
C       -0.03490000       0.02410000      -0.05370000
C       -0.47080000      -0.68160000      -1.31400000
C       -1.31740000      -0.78190000      -0.06310000
C       -1.12770000      -1.99490000       0.85460000
C       -0.13080000      -3.04560000       0.48040000
C        0.27880000      -1.93640000       1.43950000
C        0.87890000      -0.65680000       0.94240000
O        1.83050000      -0.07750000       1.41900000
H        0.85240000       1.60060000       0.46830000
H       -0.83690000       0.00560000      -2.07010000
H        0.06100000      -1.53540000      -1.71580000
H       -2.28450000      -0.29410000      -0.06030000
H       -1.96660000      -2.27640000       1.47940000
H       -0.24110000      -4.02120000       0.94140000
H        0.29050000      -3.08420000      -0.51540000
H        0.51740000      -2.20310000       2.46140000
