18
Properties=species:S:1:pos:R:3 gdb_56554=T pbc="F F F"
C        0.05760000       1.44760000      -0.25580000
C        0.00200000      -0.06360000      -0.02010000
C        0.79040000      -0.49680000       1.25060000
N        0.81570000      -1.97970000       1.34190000
H       -0.84520000      -2.11820000       0.86670000
H        1.47450000      -2.34640000       0.65910000
H        1.15540000      -2.26640000       2.25510000
C        2.14120000       0.06700000       1.29590000
C        3.27280000       0.47210000       1.33100000
C       -1.47250000      -0.54380000      -0.00420000
O       -2.36210000       0.12360000      -0.46450000
O       -1.70070000      -1.75260000       0.51830000
H        1.08430000       1.77920000      -0.42170000
H       -0.55430000       1.70500000      -1.12020000
H       -0.34750000       1.99080000       0.60420000
H        0.47660000      -0.57220000      -0.87300000
H        0.23260000      -0.14200000       2.12680000
H        4.26650000       0.84630000       1.36790000
