17
Properties=species:S:1:pos:R:3 gdb_8044=T pbc="F F F"
C       -0.02780000       1.47550000       0.03140000
C        0.03210000      -0.02660000       0.01310000
C        0.61480000      -0.95990000      -1.09480000
C        0.06830000      -1.91930000      -0.00280000
C        0.71380000      -0.97690000       1.05020000
C       -1.20290000      -1.00910000       0.03590000
C       -2.05850000      -1.02670000       1.21080000
N       -2.75010000      -1.02850000       2.13810000
H        0.98070000       1.90220000       0.01710000
H       -0.56930000       1.86060000      -0.83920000
H       -0.53480000       1.83500000       0.93280000
H        0.10250000      -0.96080000      -2.06120000
H        1.70020000      -0.93840000      -1.21630000
H        0.06660000      -3.00840000      -0.01150000
H        1.80610000      -0.95490000       1.07060000
H        0.29440000      -0.99390000       2.05830000
H       -1.81260000      -1.01270000      -0.87230000
