22
Properties=species:S:1:pos:R:3 gdb_7975=T pbc="F F F"
C       -0.11920000       1.55740000      -0.08870000
C        0.09170000       0.04580000      -0.01850000
C        0.92770000      -0.54560000      -1.18040000
C        1.54950000      -1.78720000      -0.57400000
C        2.21510000      -2.82920000      -1.41610000
C        1.43660000      -1.76700000       0.75600000
C        0.77160000      -0.51100000       1.27560000
C        1.79560000       0.42720000       1.94110000
H        0.83060000       2.10170000      -0.06680000
H       -0.63410000       1.83270000      -1.01560000
H       -0.73050000       1.91840000       0.74590000
H       -0.89330000      -0.43500000      -0.06880000
H        0.31430000      -0.76270000      -2.06410000
H        1.70980000       0.15150000      -1.51960000
H        3.03420000      -2.39760000      -2.00640000
H        2.62670000      -3.63970000      -0.80800000
H        1.51290000      -3.26650000      -2.13780000
H        1.83680000      -2.52780000       1.42010000
H        0.00450000      -0.74350000       2.02630000
H        2.58040000       0.72590000       1.23800000
H        1.32130000       1.33430000       2.32940000
H        2.28440000      -0.07710000       2.78150000
