19
Properties=species:S:1:pos:R:3 gdb_70534=T pbc="F F F"
C       -0.08010000       1.51600000       0.05290000
C        0.02870000       0.00710000       0.03690000
C       -1.10600000      -0.70630000      -0.68080000
C       -1.08240000      -2.23060000      -0.64140000
O       -1.62860000      -2.90930000      -1.48990000
N       -0.40120000      -2.79260000       0.40500000
C        0.17220000      -2.09160000       1.54120000
C        0.67950000      -0.71680000       1.15640000
N        1.40810000      -0.51000000      -0.10400000
H        0.78500000       1.95590000       0.55460000
H       -0.11550000       1.91250000      -0.96800000
H       -0.98960000       1.83980000       0.57140000
H       -2.06280000      -0.38690000      -0.24500000
H       -1.14710000      -0.42200000      -1.73740000
H       -0.43690000      -3.80130000       0.42570000
H       -0.55630000      -1.98090000       2.35980000
H        0.99700000      -2.69860000       1.93370000
H        1.07110000      -0.15040000       1.99910000
H        1.41330000      -1.37410000      -0.64340000
