11
Properties=species:S:1:pos:R:3 gdb_129138=T pbc="F F F"
N       -0.03410000       1.23290000       0.08930000
C       -0.01090000      -0.01580000      -0.09770000
N        1.17900000      -0.77030000      -0.30020000
N        1.18240000      -1.95050000       0.11920000
N        0.00340000      -2.42960000       0.63750000
C        0.06040000      -3.75810000       1.15480000
O       -0.89630000      -4.35950000       1.52990000
N       -1.22280000      -1.92560000       0.22520000
N       -1.22860000      -0.74280000      -0.17650000
H        0.92150000       1.59880000       0.09140000
H        1.10760000      -4.09870000       1.17450000
