19
Properties=species:S:1:pos:R:3 gdb_96295=T pbc="F F F"
C        0.42890000       1.35010000       0.21140000
C       -0.18450000       0.01050000      -0.14940000
O        0.42390000      -0.45120000      -1.31440000
C        0.09430000      -1.79420000      -1.66030000
C        1.15420000      -2.75630000      -1.08850000
C        1.84190000      -2.16530000       0.15690000
C        0.87590000      -1.77920000       1.26390000
O        0.90550000      -2.26330000       2.36220000
O       -0.11760000      -0.88850000       0.97980000
H        1.50350000       1.24120000       0.38270000
H        0.27500000       2.05910000      -0.60590000
H       -0.03770000       1.73830000       1.11880000
H       -1.27050000       0.09910000      -0.30100000
H       -0.90670000      -2.04180000      -1.28620000
H        0.06490000      -1.84030000      -2.75230000
H        0.69210000      -3.71960000      -0.84800000
H        1.92770000      -2.95370000      -1.83720000
H        2.53110000      -2.88950000       0.59340000
H        2.41550000      -1.28350000      -0.14210000
