18
Properties=species:S:1:pos:R:3 gdb_87436=T pbc="F F F"
C       -0.04750000       1.56200000      -0.14990000
C       -0.02200000       0.05940000      -0.00800000
N        1.30940000      -0.59760000      -0.16680000
C        0.62560000      -0.63490000       1.11620000
C        1.18700000      -0.20500000       2.46870000
C       -0.00650000      -0.88060000       3.22170000
O        0.83710000      -1.65510000       4.12350000
C        1.53020000      -1.68830000       2.84290000
C        0.22150000      -1.81830000       1.98870000
H        0.83690000       2.00570000       0.31480000
H       -0.05610000       1.85440000      -1.20530000
H       -0.93940000       1.98480000       0.32570000
H       -0.86820000      -0.45740000      -0.46130000
H        1.21060000      -1.48450000      -0.65630000
H        1.73270000       0.68820000       2.76640000
H       -0.92920000      -0.44550000       3.60320000
H        2.47300000      -2.22730000       2.76480000
H       -0.32140000      -2.73230000       1.74850000
