15
Properties=species:S:1:pos:R:3 gdb_69232=T pbc="F F F"
N       -0.06500000       1.44490000      -0.15110000
C       -0.04360000       0.02600000      -0.02320000
C       -0.45970000      -0.81070000      -1.20290000
C       -1.30930000      -0.81720000       0.05290000
C       -1.00520000      -1.93060000       0.99070000
O       -1.71320000      -2.77060000       1.44950000
O        0.35300000      -1.86820000       1.32410000
C        0.91190000      -0.67340000       0.89470000
N        2.03170000      -0.23400000       1.26100000
H       -0.04800000       1.87910000       0.76750000
H        0.77820000       1.75550000      -0.62560000
H       -0.87530000      -0.24950000      -2.03130000
H        0.10570000      -1.69640000      -1.46880000
H       -2.30740000      -0.40390000       0.03450000
H        2.48660000      -0.87480000       1.91280000
