21
Properties=species:S:1:pos:R:3 gdb_51663=T pbc="F F F"
O       -0.68600000       1.08230000       0.78150000
C        0.04370000       1.11490000      -0.17590000
C        1.37430000       1.82910000      -0.23270000
C        1.35760000       2.93950000      -1.28900000
C        0.53770000       4.23960000      -1.01750000
C        1.73530000       5.09820000      -1.52120000
C        2.61780000       5.69840000      -0.40340000
C        3.37760000       4.34170000      -0.28430000
C        2.62400000       3.80050000      -1.53750000
H       -0.24360000       0.61030000      -1.12960000
H        1.59960000       2.21670000       0.76450000
H        2.14310000       1.09010000      -0.50240000
H        1.04350000       2.50650000      -2.24660000
H       -0.38930000       4.33250000      -1.58770000
H        0.30040000       4.40200000       0.03890000
H        1.54810000       5.70210000      -2.41000000
H        3.26380000       6.50370000      -0.76350000
H        2.09300000       6.05440000       0.48830000
H        4.45940000       4.41700000      -0.41380000
H        3.19370000       3.78770000       0.63970000
H        3.25710000       3.51150000      -2.37850000
