15
Properties=species:S:1:pos:R:3 gdb_13467=T pbc="F F F"
C       -0.42400000       1.41530000      -0.06900000
C        0.04500000      -0.00940000       0.10910000
O        0.33000000      -0.49400000       1.17800000
C        0.11280000      -0.83420000      -1.17710000
C        0.37430000      -2.34050000      -1.03720000
O       -0.96730000      -2.62520000      -1.56600000
C       -1.24370000      -1.28900000      -1.70450000
N       -2.26700000      -0.68450000      -2.10160000
H        0.30990000       1.97670000      -0.65950000
H       -1.36220000       1.42340000      -0.63490000
H       -0.55190000       1.89250000       0.90300000
H        0.70520000      -0.31130000      -1.93230000
H        1.14290000      -2.76650000      -1.68400000
H        0.47520000      -2.68830000      -0.00880000
H       -3.01230000      -1.33010000      -2.36650000
