17
Properties=species:S:1:pos:R:3 gdb_105847=T pbc="F F F"
C        0.14190000       1.42270000      -0.27270000
N       -0.15600000       0.02590000       0.06390000
C        0.55050000      -0.47760000       1.17280000
C        2.03080000      -0.87900000       1.06680000
N        3.07710000      -0.27390000       1.84120000
C        1.04080000      -1.88650000       1.54330000
O        0.76950000      -1.64120000       2.95000000
C        0.19250000      -0.40350000       2.64360000
O       -0.41420000       0.30600000       3.37730000
H        1.20720000       1.51660000      -0.50150000
H       -0.42390000       1.70000000      -1.16630000
H       -0.09770000       2.13350000       0.53100000
H       -1.15480000      -0.10450000       0.18310000
H        2.29350000      -0.99590000       0.01770000
H        2.85820000      -0.34110000       2.83170000
H        3.94070000      -0.79160000       1.70370000
H        0.76920000      -2.85630000       1.14950000
