15
Properties=species:S:1:pos:R:3 gdb_49716=T pbc="F F F"
N       -0.08920000       1.12820000      -0.55260000
C       -0.01120000      -0.05420000      -0.14070000
C       -1.02370000      -1.09480000       0.34260000
O       -1.51840000      -1.93230000      -0.72220000
C       -0.47720000      -2.91580000      -0.51320000
C        0.18480000      -2.05150000       0.57670000
N        1.05290000      -0.98300000       0.06390000
C        2.39250000      -0.90380000      -0.20450000
O        2.92900000       0.07850000      -0.66500000
H        0.83100000       1.48350000      -0.81920000
H       -1.78400000      -0.80660000       1.06790000
H       -0.89520000      -3.85750000      -0.13840000
H        0.11770000      -3.10350000      -1.41300000
H        0.48240000      -2.49110000       1.52690000
H        2.93290000      -1.83420000       0.05830000
