17
Properties=species:S:1:pos:R:3 gdb_37570=T pbc="F F F"
C       -0.03100000       1.44320000      -0.01660000
C        1.47110000       1.92460000       0.07200000
C        2.09910000       0.59460000       0.37790000
C        3.32550000      -0.36880000       0.52970000
O        3.50150000      -0.14530000       1.95140000
C        2.05400000      -0.15980000       1.76580000
C        2.05020000      -1.30390000       0.72640000
C        1.24200000      -0.45940000      -0.27940000
O       -0.07460000      -0.00710000      -0.01760000
H       -0.61630000       1.78470000       0.84270000
H       -0.50730000       1.82360000      -0.92820000
H        1.80720000       2.32930000      -0.88740000
H        1.61270000       2.68910000       0.83880000
H        4.20540000      -0.50820000      -0.09710000
H        1.41360000       0.00610000       2.62950000
H        2.06550000      -2.37510000       0.92420000
H        1.39500000      -0.68150000      -1.34360000
