16
Properties=species:S:1:pos:R:3 gdb_28719=T pbc="F F F"
C        0.12610000       1.55010000      -0.35720000
C       -0.02080000       0.10550000      -0.01820000
N       -0.69330000      -0.78710000      -0.70770000
C       -0.54340000      -1.99000000      -0.04600000
C        0.22630000      -1.80130000       1.06740000
N        0.55860000      -0.46770000       1.08760000
O        0.70820000      -2.60910000       2.04910000
C       -0.14860000      -3.53530000       2.57270000
N        0.30660000      -4.41780000       3.34330000
H       -0.26560000       2.19980000       0.43400000
H        1.17360000       1.82640000      -0.52450000
H       -0.43270000       1.74650000      -1.27300000
H       -0.97790000      -2.90580000      -0.41410000
H        1.13070000      -0.02570000       1.78830000
H       -1.18240000      -3.38010000       2.24510000
H       -0.44810000      -5.01580000       3.67350000
