16
Properties=species:S:1:pos:R:3 gdb_61142=T pbc="F F F"
C        0.23930000       1.42460000       0.12170000
C       -0.02950000      -0.08770000      -0.01670000
C       -1.53400000      -0.43320000      -0.02400000
C       -2.18450000      -0.09290000       1.23420000
C       -2.69950000       0.18990000       2.28270000
C        0.63270000      -0.62550000      -1.27020000
O        0.05920000      -1.11860000      -2.20820000
C        2.11070000      -0.50810000      -1.29140000
N        3.26380000      -0.42190000      -1.29510000
H        1.31030000       1.63990000       0.15680000
H       -0.19770000       1.97520000      -0.71750000
H       -0.21710000       1.78650000       1.04540000
H        0.45230000      -0.59240000       0.83220000
H       -2.01890000       0.09170000      -0.85550000
H       -1.65950000      -1.50110000      -0.23370000
H       -3.17190000       0.43200000       3.20250000
