25
Properties=species:S:1:pos:R:3 gdb_59981=T pbc="F F F"
C        0.99080000      -0.32530000      -1.04580000
C        0.05440000       0.07530000       0.10290000
C       -0.03010000       1.60260000       0.22330000
C       -1.35310000      -0.52820000      -0.04790000
C       -1.40840000      -2.06050000       0.04220000
O       -0.79420000      -2.54470000       1.23040000
C       -2.85390000      -2.58610000      -0.03710000
C       -2.91190000      -4.10450000      -0.17930000
O       -3.47200000      -2.15320000       1.18100000
H        1.97800000       0.13190000      -0.92040000
H        1.13830000      -1.40810000      -1.09830000
H        0.59300000       0.00840000      -2.01260000
H        0.47490000      -0.32160000       1.03480000
H       -0.45330000       2.04750000      -0.68600000
H       -0.66430000       1.90280000       1.06430000
H        0.96080000       2.04380000       0.37570000
H       -2.00880000      -0.12030000       0.73100000
H       -1.78510000      -0.21740000      -1.01060000
H       -0.84300000      -2.50090000      -0.78720000
H       -1.43860000      -2.37920000       1.93160000
H       -3.35610000      -2.11440000      -0.89640000
H       -2.33590000      -4.57830000       0.61950000
H       -3.94680000      -4.46460000      -0.13580000
H       -2.49550000      -4.41890000      -1.14160000
H       -4.28850000      -2.64670000       1.29970000
