13
Properties=species:S:1:pos:R:3 gdb_123306=T pbc="F F F"
C        0.02880000      -1.21670000      -0.00410000
C        0.00270000      -0.01320000       0.00300000
C       -0.01770000       1.39720000       0.01100000
C       -1.12380000       2.23020000       0.02960000
N       -0.64900000       3.49480000       0.03060000
N        0.69080000       3.57200000       0.01410000
C        1.09740000       2.29880000       0.00190000
C        2.47010000       1.95430000      -0.01730000
C        3.62870000       1.63160000      -0.03360000
H        0.05710000      -2.27790000      -0.01040000
H       -2.17780000       2.00580000       0.04160000
H       -1.18020000       4.34950000       0.04200000
H        4.65270000       1.35150000      -0.04780000
