17
Properties=species:S:1:pos:R:3 gdb_62516=T pbc="F F F"
C        0.17080000       1.39590000       0.21180000
C       -0.06450000      -0.09160000       0.04040000
C       -1.43320000      -0.58800000       0.45940000
C        0.63500000      -0.82510000      -1.10480000
C        1.47140000      -0.09710000      -2.03020000
N        2.09060000       0.49290000      -2.80800000
N        1.03400000      -1.01210000       0.27460000
C        2.29090000      -0.76420000       0.80880000
O        3.33190000      -1.02450000       0.26450000
H        1.15780000       1.69880000      -0.14480000
H       -0.58130000       1.96150000      -0.34630000
H        0.07960000       1.67340000       1.26690000
H       -2.21520000      -0.08890000      -0.12110000
H       -1.52110000      -1.66740000       0.31750000
H       -1.60710000      -0.36830000       1.51800000
H        0.12710000      -1.67400000      -1.55630000
H        2.21690000      -0.36900000       1.83950000
