17
Properties=species:S:1:pos:R:3 gdb_113614=T pbc="F F F"
C       -0.07480000       1.51610000      -0.31720000
C       -0.06730000       0.16150000       0.40190000
C       -1.39670000      -0.53940000       0.28440000
O       -1.71260000      -1.14450000      -0.96540000
C       -1.54750000      -2.01300000       0.16850000
C       -0.41910000      -2.89750000       0.17320000
C        0.50520000      -3.67590000       0.21110000
C        1.62530000      -4.58090000       0.21610000
O        1.77560000      -5.47860000       1.01290000
H        0.89560000       2.01130000      -0.22380000
H       -0.29090000       1.38640000      -1.38170000
H       -0.83390000       2.18570000       0.10150000
H        0.71440000      -0.48360000      -0.01030000
H        0.15710000       0.29950000       1.46710000
H       -2.24160000      -0.01990000       0.74340000
H       -2.47560000      -2.45550000       0.52900000
H        2.36310000      -4.38850000      -0.58900000
