12
Properties=species:S:1:pos:R:3 gdb_129571=T pbc="F F F"
N       -0.15640000       1.52640000       0.05100000
C        0.01840000       0.08510000      -0.03690000
C       -1.27180000      -0.59050000       0.19840000
N       -2.28400000      -1.11900000       0.36660000
C        0.61940000      -0.42690000      -1.33140000
N        0.81050000       0.29880000      -2.39250000
O        1.38010000      -0.54340000      -3.28210000
N        1.51740000      -1.79870000      -2.68870000
N        1.06200000      -1.72330000      -1.52110000
H        0.74320000       1.98460000      -0.05760000
H       -0.74920000       1.85540000      -0.70530000
H        0.69120000      -0.23070000       0.77120000
