22
Properties=species:S:1:pos:R:3 gdb_9550=T pbc="F F F"
C        0.03840000       1.63190000       0.10990000
C       -0.10900000       0.11680000      -0.07890000
C        0.66710000      -0.45820000      -1.27320000
C        0.25850000       0.17380000      -2.60090000
C        2.19120000      -0.56020000      -1.00220000
O        2.10670000      -1.97880000      -0.77250000
C        0.75530000      -2.02090000      -1.28670000
C       -0.15930000      -2.89950000      -0.45750000
H        1.09120000       1.92660000       0.18390000
H       -0.40670000       2.19400000      -0.71620000
H       -0.45760000       1.95430000       1.03050000
H        0.23190000      -0.38420000       0.83440000
H       -1.17280000      -0.13210000      -0.18710000
H        0.48550000       1.24410000      -2.62760000
H        0.78650000      -0.29460000      -3.43770000
H       -0.81760000       0.05980000      -2.77840000
H        2.82220000      -0.32200000      -1.87060000
H        2.57930000      -0.02710000      -0.12580000
H        0.76150000      -2.39330000      -2.32400000
H       -0.20470000      -2.57720000       0.58530000
H       -1.17360000      -2.90130000      -0.87140000
H        0.21240000      -3.92920000      -0.47630000
