17
Properties=species:S:1:pos:R:3 gdb_127044=T pbc="F F F"
C       -0.10600000       1.48910000       0.11210000
C       -0.01530000      -0.01290000      -0.06670000
O       -1.33730000      -0.55310000       0.13020000
C       -1.45070000      -1.86610000       0.01100000
N       -0.45690000      -2.67760000      -0.26790000
O       -1.09540000      -3.93550000      -0.27990000
C       -2.38760000      -3.71420000      -0.00690000
C       -3.30040000      -4.88550000       0.04350000
N       -2.67610000      -2.46240000       0.18330000
H        0.88120000       1.93800000      -0.03000000
H       -0.79400000       1.92630000      -0.61650000
H       -0.45990000       1.74020000       1.11570000
H        0.33270000      -0.28750000      -1.06880000
H        0.66580000      -0.47310000       0.65790000
H       -2.97270000      -5.59530000       0.80900000
H       -4.30960000      -4.54520000       0.27360000
H       -3.30390000      -5.41140000      -0.91590000
