16
Properties=species:S:1:pos:R:3 gdb_9153=T pbc="F F F"
O        0.36400000       0.78750000       0.81400000
C       -0.08690000       0.13740000      -0.36480000
C       -1.41320000      -0.46530000      -0.23220000
C       -2.51930000      -0.93140000      -0.11760000
C       -3.84710000      -1.49830000       0.08720000
O       -3.80300000      -2.84040000       0.59170000
C       -4.70140000      -0.63730000       1.03840000
O       -5.94850000      -1.24980000       1.25670000
H       -0.30560000       1.43290000       1.06380000
H       -0.08760000       0.82040000      -1.22920000
H        0.65550000      -0.63930000      -0.57920000
H       -4.37930000      -1.57730000      -0.86800000
H       -3.10560000      -2.87480000       1.25690000
H       -4.14080000      -0.48850000       1.97720000
H       -4.88160000       0.34710000       0.59530000
H       -5.75220000      -2.18270000       1.41610000
