17
Properties=species:S:1:pos:R:3 gdb_16147=T pbc="F F F"
O       -0.27910000       0.13050000       0.20130000
C       -0.04910000       1.28490000      -0.06310000
C        1.30610000       1.89180000      -0.03390000
C        1.44840000       3.33660000       0.34430000
N        1.55750000       2.95520000      -1.05380000
C        2.94470000       2.74650000      -1.52300000
C        3.66950000       1.83000000      -0.50990000
C        2.52900000       1.00420000       0.12320000
H       -0.85500000       1.99260000      -0.35870000
H        0.56430000       3.91940000       0.58930000
H        2.34020000       3.61170000       0.90300000
H        2.87640000       2.26590000      -2.50430000
H        3.43690000       3.71400000      -1.66020000
H        4.42420000       1.20380000      -0.99130000
H        4.18860000       2.42080000       0.25040000
H        2.72610000       0.73760000       1.16480000
H        2.35230000       0.07010000      -0.41870000
