21
Properties=species:S:1:pos:R:3 gdb_64265=T pbc="F F F"
C       -0.21880000       1.56240000       0.11240000
C        0.00350000       0.05300000      -0.00470000
O       -1.24910000      -0.63670000       0.00510000
C        0.82500000      -0.33020000      -1.27440000
C        2.34580000      -0.46980000      -1.00780000
C        2.57250000      -0.87780000       0.44610000
C        1.46190000      -1.81070000       0.97720000
C        0.75540000      -0.46680000       1.23290000
O        2.04630000       0.19850000       1.28100000
H        0.73540000       2.08970000       0.18020000
H       -0.76120000       1.93910000      -0.76330000
H       -0.80920000       1.79240000       1.00480000
H       -1.78680000      -0.28410000      -0.71160000
H        0.43030000      -1.29230000      -1.61360000
H        0.63860000       0.38560000      -2.08250000
H        2.78290000      -1.20320000      -1.69550000
H        2.86890000       0.47860000      -1.17140000
H        3.61700000      -1.10280000       0.67810000
H        0.99640000      -2.52940000       0.30170000
H        1.75190000      -2.29710000       1.90940000
H        0.16790000      -0.33010000       2.14470000
