19
Properties=species:S:1:pos:R:3 gdb_47895=T pbc="F F F"
O        0.00940000       0.18650000       1.12930000
C        0.15060000       1.15660000       0.40680000
C       -1.09410000       1.61400000      -0.41530000
N       -1.23280000       3.03010000      -0.74810000
C       -1.03850000       3.43150000      -2.13530000
C        0.44090000       3.72650000      -2.44880000
N        1.28710000       2.65200000      -1.92910000
C        1.75320000       2.76230000      -0.62230000
C        1.38610000       1.95320000       0.38720000
H       -1.14620000       0.98200000      -1.31900000
H       -1.93170000       1.29230000       0.21130000
H       -2.11430000       3.37780000      -0.40310000
H       -1.39000000       2.65180000      -2.83740000
H       -1.63600000       4.32730000      -2.33740000
H        0.57900000       3.83300000      -3.53160000
H        0.75220000       4.66050000      -1.97180000
H        0.88320000       1.74170000      -2.11140000
H        2.51170000       3.53250000      -0.48280000
H        1.96520000       1.92710000       1.30450000
