14
Properties=species:S:1:pos:R:3 gdb_18551=T pbc="F F F"
O        0.02320000       0.08380000      -0.63420000
C        0.05380000       1.16700000      -0.14970000
O       -0.95500000       1.82020000       0.51770000
C       -0.14800000       3.03830000       0.67910000
C        0.21420000       3.32250000       2.13980000
C        1.54620000       2.62780000       2.30980000
C        2.01260000       2.11060000       1.17170000
C        1.05930000       2.32160000       0.02470000
H       -0.61980000       3.86120000       0.14250000
H        0.28620000       4.39950000       2.33640000
H       -0.56160000       2.92980000       2.80790000
H        2.04920000       2.56690000       3.26830000
H        2.94030000       1.56370000       1.05790000
H        1.49760000       2.70320000      -0.89900000
