22
Properties=species:S:1:pos:R:3 gdb_62616=T pbc="F F F"
C       -0.02860000       1.58120000       0.01810000
C        0.04520000       0.05450000       0.02410000
C       -1.32110000      -0.54870000      -0.32340000
C        1.14870000      -0.64100000      -0.76590000
C        2.38910000      -0.71540000       0.06090000
C        2.11970000      -0.08160000       1.40970000
C        0.70520000      -0.68250000       1.24180000
C       -0.07950000      -1.13570000       2.44040000
N        1.30500000      -1.74320000       0.24180000
H        0.94810000       2.04940000       0.15880000
H       -0.42980000       1.93930000      -0.93680000
H       -0.69730000       1.94480000       0.80740000
H       -1.63590000      -0.22680000      -1.32230000
H       -1.28890000      -1.64130000      -0.31610000
H       -2.09040000      -0.21970000       0.38390000
H        1.15430000      -0.86130000      -1.82920000
H        3.34690000      -0.98830000      -0.36880000
H        2.66470000      -0.60980000       2.19760000
H        2.23540000       0.99720000       1.54960000
H       -0.38160000      -0.27410000       3.04780000
H       -0.98150000      -1.68300000       2.15400000
H        0.52900000      -1.79360000       3.06900000
