16
Properties=species:S:1:pos:R:3 gdb_18894=T pbc="F F F"
O       -0.12210000       1.32360000      -0.09500000
C        0.02470000      -0.05700000      -0.06120000
C        1.07620000      -0.77700000      -0.89210000
C        0.71210000      -2.19930000      -0.52970000
C        0.17470000      -2.27880000       0.89370000
C       -0.78360000      -2.32410000      -0.28000000
C       -1.23940000      -0.87980000       0.03380000
C       -0.27820000      -0.83650000       1.21410000
H        0.61750000       1.71450000       0.38320000
H        0.96040000      -0.56480000      -1.96050000
H        2.09680000      -0.51180000      -0.58920000
H        1.25000000      -3.04820000      -0.93370000
H        0.43710000      -3.05280000       1.60210000
H       -1.39960000      -3.13670000      -0.63980000
H       -2.22860000      -0.45480000      -0.06170000
H       -0.40630000      -0.37490000       2.18370000
