14
Properties=species:S:1:pos:R:3 gdb_23254=T pbc="F F F"
O       -0.03280000       1.28960000       0.23730000
N        0.02080000      -0.07700000       0.10290000
C       -1.12630000      -0.63610000      -0.00160000
C       -1.23860000      -2.10260000      -0.18520000
O       -2.07410000      -2.71060000       0.82310000
C       -2.65380000      -2.43020000      -0.45120000
C       -3.49040000      -1.16990000      -0.44980000
C       -2.52340000      -0.04800000      -0.02170000
O       -2.83530000       1.08700000       0.22300000
H        0.89980000       1.53110000       0.29180000
H       -0.39520000      -2.68990000      -0.53050000
H       -2.94140000      -3.29580000      -1.04150000
H       -3.87940000      -0.93670000      -1.44830000
H       -4.34170000      -1.22210000       0.23420000
