18
Properties=species:S:1:pos:R:3 gdb_67508=T pbc="F F F"
C        0.06640000       1.53250000       0.00890000
C        0.04010000       0.03320000       0.03720000
C       -1.29100000      -0.77580000       0.00370000
N       -0.98020000      -2.17980000      -0.34990000
C       -0.78660000      -1.70310000       1.03690000
C        0.57120000      -0.95160000       1.08980000
C        1.21900000      -0.85640000      -0.26920000
C        1.28470000      -1.93280000      -1.32790000
O        1.32050000      -1.68220000      -2.50780000
H        1.05100000       1.91230000       0.29830000
H       -0.15540000       1.91210000      -0.99560000
H       -0.67210000       1.95860000       0.69830000
H       -2.27680000      -0.36010000      -0.15940000
H       -1.84970000      -2.70750000      -0.40600000
H       -1.28890000      -2.17270000       1.87200000
H        1.09510000      -0.73230000       2.01150000
H        2.15150000      -0.29300000      -0.23670000
H        1.42260000      -2.96300000      -0.94140000
