20
Properties=species:S:1:pos:R:3 gdb_17960=T pbc="F F F"
C       -0.09950000       1.70490000       0.19550000
C        1.27300000       2.40870000       0.22490000
C        2.11890000       2.36300000      -1.02080000
C        1.81180000       2.01350000      -2.27140000
C        0.49190000       1.53650000      -2.83420000
C        0.22230000       0.03500000      -2.60410000
C        0.11860000      -0.45590000      -1.18360000
C       -0.01620000       0.21300000      -0.03710000
H       -0.57470000       1.87480000       1.16820000
H       -0.75050000       2.18890000      -0.53490000
H        1.12370000       3.46130000       0.51060000
H        1.86680000       1.97780000       1.04360000
H        3.14860000       2.67410000      -0.84500000
H        2.62370000       2.04950000      -2.99620000
H       -0.34330000       2.12740000      -2.45370000
H        0.49940000       1.70480000      -3.91710000
H       -0.69700000      -0.24470000      -3.14120000
H        1.01980000      -0.54030000      -3.09520000
H        0.16090000      -1.54240000      -1.10710000
H       -0.04850000      -0.38670000       0.87130000
