14
Properties=species:S:1:pos:R:3 gdb_2318=T pbc="F F F"
O       -0.08950000       1.44170000       0.19000000
C        0.01670000       0.05040000       0.09810000
C       -0.61410000      -0.81320000       1.16100000
C       -1.25050000      -0.69680000      -0.20870000
C       -2.54410000       0.08390000      -0.37940000
C       -3.71860000      -0.67760000       0.04690000
N       -4.64010000      -1.28820000       0.38400000
H        0.47310000       1.73860000       0.91260000
H        0.93060000      -0.30600000      -0.37600000
H       -0.13740000      -1.74640000       1.43860000
H       -1.10970000      -0.29550000       1.97610000
H       -1.15800000      -1.55790000      -0.86240000
H       -2.49070000       1.01440000       0.19280000
H       -2.67940000       0.37290000      -1.42820000
