16
Properties=species:S:1:pos:R:3 gdb_53848=T pbc="F F F"
C        0.03230000       1.45600000       0.00730000
C        0.00570000      -0.05390000      -0.00090000
O        0.99510000      -0.74200000      -0.01470000
C       -1.38290000      -0.69790000       0.01040000
N       -2.41440000       0.04270000       0.02510000
O       -1.28480000      -2.04220000       0.00240000
C       -2.50800000      -2.78230000       0.01130000
C       -2.20610000      -4.20310000       0.00070000
C       -1.99590000      -5.38440000      -0.00760000
H        1.06950000       1.79200000      -0.00200000
H       -0.50620000       1.85010000      -0.85920000
H       -0.48720000       1.84020000       0.88980000
H       -3.29470000      -0.47060000       0.03160000
H       -3.09190000      -2.52290000       0.90590000
H       -3.11050000      -2.51370000      -0.86810000
H       -1.79950000      -6.42830000      -0.01510000
