23
Properties=species:S:1:pos:R:3 gdb_118113=T pbc="F F F"
C        0.03550000       1.54520000      -0.23360000
C        0.04220000       0.04700000      -0.01760000
C        1.31830000      -0.75480000      -0.09650000
C        0.60710000      -0.59420000       1.22890000
C        1.21590000       0.21760000       2.35270000
O        0.21860000       0.94780000       3.07630000
C        2.05540000      -0.65870000       3.28980000
C        2.73670000       0.13270000       4.39810000
O        3.46040000      -0.78570000       5.20660000
H        0.96900000       2.01030000       0.09500000
H       -0.08910000       1.77990000      -1.29640000
H       -0.77960000       2.02220000       0.31950000
H       -0.83900000      -0.45160000      -0.41420000
H        1.31030000      -1.72560000      -0.57990000
H        2.24410000      -0.20270000      -0.23230000
H        0.07380000      -1.47590000       1.58360000
H        1.86010000       0.99770000       1.93040000
H       -0.44010000       0.31290000       3.37950000
H        1.41440000      -1.42540000       3.74670000
H        2.81490000      -1.19270000       2.70720000
H        3.40860000       0.88660000       3.95420000
H        1.97790000       0.67470000       4.97890000
H        3.84730000      -0.29690000       5.93850000
