19
Properties=species:S:1:pos:R:3 gdb_92272=T pbc="F F F"
C       -0.80960000       1.34670000      -0.02400000
C       -0.01600000       0.06080000      -0.08700000
O        1.18840000       0.17720000      -0.88670000
C        1.98190000      -0.53560000       0.08870000
C        3.15630000       0.29510000       0.61820000
C        2.56370000       0.98520000       1.82800000
C        1.31200000       0.60300000       2.08950000
C        0.81470000      -0.43660000       1.12100000
O        0.25600000      -1.57980000       1.72010000
H       -0.20130000       2.16150000       0.37770000
H       -1.14680000       1.62840000      -1.02650000
H       -1.69480000       1.21700000       0.60780000
H       -0.64170000      -0.76530000      -0.45460000
H        2.24550000      -1.54100000      -0.25680000
H        4.03080000      -0.31360000       0.88350000
H        3.48320000       1.00670000      -0.14880000
H        3.11800000       1.71900000       2.40430000
H        0.69430000       0.97180000       2.90140000
H        0.78480000      -1.79890000       2.49490000
