17
Properties=species:S:1:pos:R:3 gdb_45703=T pbc="F F F"
O        0.05200000       0.09190000       0.46980000
C        0.01940000       1.23820000       0.12840000
C       -1.23680000       2.14570000       0.02700000
C       -0.64830000       3.50730000       0.32740000
C        0.67720000       3.50250000       0.17550000
C        1.84690000       4.30970000       0.63290000
C        2.71300000       3.16240000       1.21830000
O        2.44900000       1.99090000       0.42940000
C        1.21020000       2.15880000      -0.23690000
H       -1.66310000       2.05730000      -0.98220000
H       -2.01360000       1.82620000       0.72890000
H       -1.23980000       4.33270000       0.70660000
H        2.36700000       4.78490000      -0.20770000
H        1.60520000       5.07720000       1.37120000
H        3.78680000       3.36230000       1.17120000
H        2.43690000       2.97880000       2.26610000
H        1.37450000       2.05880000      -1.32360000
