21
Properties=species:S:1:pos:R:3 gdb_75005=T pbc="F F F"
C       -0.08890000       1.51070000       0.09090000
C        0.02280000       0.02230000      -0.00590000
C       -0.03450000      -0.72680000      -1.11530000
C        0.04300000      -2.20420000      -0.80590000
C        1.06370000      -3.15620000      -1.47110000
C        1.50510000      -4.08360000      -0.30130000
C        1.32740000      -3.19070000       0.91640000
C        0.52000000      -2.17210000       0.63720000
C        0.18520000      -0.84040000       1.24800000
H        0.80260000       1.94690000       0.55990000
H       -0.21500000       1.97070000      -0.89310000
H       -0.94230000       1.80530000       0.71590000
H       -0.18510000      -0.32810000      -2.11360000
H       -0.96450000      -2.64970000      -0.88450000
H        0.66020000      -3.70560000      -2.32650000
H        1.92870000      -2.57980000      -1.81780000
H        0.87360000      -4.98250000      -0.24300000
H        2.53530000      -4.43880000      -0.41500000
H        1.83920000      -3.36500000       1.85660000
H        0.96090000      -0.46910000       1.92870000
H       -0.75300000      -0.85090000       1.82550000
