17
Properties=species:S:1:pos:R:3 gdb_60698=T pbc="F F F"
N        0.17980000       1.25790000       0.46450000
C        0.02000000       0.01900000      -0.11940000
C        1.30870000      -0.77140000      -0.20000000
O        1.40660000      -1.87360000      -0.65890000
N       -1.06060000      -0.51690000      -0.53430000
C       -2.28550000       0.25210000      -0.44020000
C       -3.44060000      -0.50150000      -1.11520000
C       -4.77670000       0.14730000      -0.84530000
O       -5.54680000       0.53170000      -1.68710000
H        1.10930000       1.64370000       0.51910000
H       -0.55440000       1.93980000       0.36760000
H        2.19500000      -0.23150000       0.21280000
H       -2.53690000       0.44330000       0.61770000
H       -2.17890000       1.24470000      -0.91400000
H       -3.28200000      -0.57820000      -2.19330000
H       -3.46280000      -1.51710000      -0.69780000
H       -5.02000000       0.25570000       0.23980000
