18
Properties=species:S:1:pos:R:3 gdb_90467=T pbc="F F F"
O       -0.00190000       1.42520000       0.10450000
C        0.03520000       0.01250000       0.04210000
C       -1.39130000      -0.54940000      -0.11170000
C       -1.16780000      -1.86690000      -0.83710000
C       -1.03160000      -1.86800000      -2.32980000
C       -1.39500000      -0.72940000      -3.12040000
C       -1.69180000       0.21480000      -3.80520000
N        0.17660000      -1.88430000      -1.45570000
C        0.78380000      -0.56260000      -1.18530000
H        0.88170000       1.74190000       0.31530000
H        0.48590000      -0.40000000       0.95810000
H       -1.89090000      -0.68920000       0.84880000
H       -1.98290000       0.15480000      -0.70520000
H       -1.48090000      -2.79060000      -0.35760000
H       -1.17000000      -2.81990000      -2.83830000
H       -1.96060000       1.04660000      -4.40820000
H        0.67170000       0.12580000      -2.03010000
H        1.85130000      -0.70810000      -0.99490000
