17
Properties=species:S:1:pos:R:3 gdb_48816=T pbc="F F F"
O       -0.43990000       0.65440000       0.78200000
C        0.14960000       1.06040000      -0.18690000
C        1.41270000       1.86320000      -0.13750000
C        2.16650000       1.90190000       1.17000000
C        3.13410000       3.04490000       1.28130000
C        3.23230000       4.04250000       0.40750000
C        2.37790000       4.18170000      -0.82200000
C        1.52450000       2.97000000      -1.12220000
O        2.19000000       1.73530000      -1.34330000
H       -0.20220000       0.86620000      -1.22460000
H        1.42600000       1.93680000       1.97940000
H        2.69200000       0.94640000       1.30250000
H        3.78610000       3.02940000       2.15060000
H        3.96120000       4.83140000       0.57210000
H        1.71130000       5.05030000      -0.71990000
H        3.00240000       4.39520000      -1.70080000
H        0.68720000       3.14470000      -1.80070000
