16
Properties=species:S:1:pos:R:3 gdb_36225=T pbc="F F F"
N       -0.10060000      -1.09130000       0.54270000
C       -0.06210000       0.02160000       0.23450000
C        0.01070000       1.43710000      -0.14230000
C        1.42170000       1.96500000      -0.12160000
C        2.06570000       2.57270000      -1.12240000
C        3.46810000       2.99390000      -0.73620000
C        3.55210000       2.59750000       0.73400000
O        2.61240000       3.26550000       1.57830000
C        2.28760000       1.93980000       1.10180000
H       -0.42840000       1.55840000      -1.13780000
H       -0.62080000       2.00190000       0.55670000
H        1.64090000       2.78500000      -2.09780000
H        4.22660000       2.47100000      -1.33250000
H        3.63400000       4.06840000      -0.87830000
H        4.50580000       2.35660000       1.19460000
H        2.18780000       1.17680000       1.86780000
