22
Properties=species:S:1:pos:R:3 gdb_104785=T pbc="F F F"
C        0.57110000       1.21740000       0.29410000
C        0.11930000      -0.21710000      -0.00140000
C        0.57180000      -0.71230000      -1.37590000
C        2.08270000      -0.95610000      -1.63350000
N        1.84970000      -2.37030000      -2.09930000
C        1.28290000      -3.07540000      -0.93830000
C        0.38860000      -2.20140000      -1.72440000
O        0.12000000       0.13110000      -2.42900000
C       -1.28000000       0.23150000      -2.58810000
H        1.66360000       1.29760000       0.28380000
H        0.18610000       1.91510000      -0.45430000
H        0.22320000       1.54270000       1.27890000
H        0.51320000      -0.89470000       0.76320000
H       -0.97300000      -0.29070000       0.07210000
H        2.44940000      -0.33920000      -2.45400000
H        2.75790000      -0.88190000      -0.77450000
H        1.19390000      -4.14680000      -1.09260000
H        1.60070000      -2.79140000       0.06290000
H       -0.40240000      -2.59860000      -2.35250000
H       -1.44930000       0.75910000      -3.53000000
H       -1.76640000      -0.75220000      -2.64900000
H       -1.75730000       0.80260000      -1.77980000
