14
Properties=species:S:1:pos:R:3 gdb_128360=T pbc="F F F"
C        0.03350000       1.41570000      -0.06140000
N       -0.06090000      -0.02440000       0.10140000
C        0.61760000      -0.65760000       1.08840000
N        1.21940000      -0.03050000       2.08750000
O        1.72080000      -1.08460000       2.86620000
C        1.37970000      -2.20920000       2.24210000
C        1.76860000      -3.52550000       2.80530000
O        2.38980000      -3.66490000       3.82590000
N        0.70360000      -2.03220000       1.14440000
H        1.04500000       1.74650000      -0.33210000
H       -0.66520000       1.72790000      -0.83940000
H       -0.24300000       1.90760000       0.87460000
H       -0.23770000      -0.58860000      -0.71350000
H        1.42110000      -4.36940000       2.17880000
