16
Properties=species:S:1:pos:R:3 gdb_128592=T pbc="F F F"
C       -0.04820000       1.39960000       0.01200000
O        0.03830000      -0.03010000       0.01550000
C        0.65220000      -0.59760000       1.06050000
C        0.74990000      -2.00520000       1.08590000
N        1.34320000      -2.60530000       2.08880000
C        1.83520000      -1.79650000       3.05980000
C        2.52040000      -2.45090000       4.22290000
N        1.75520000      -0.47160000       3.05910000
N        1.14890000       0.14120000       2.03380000
H        0.94800000       1.85000000       0.02280000
H       -0.57420000       1.65420000      -0.90830000
H       -0.60220000       1.75820000       0.88360000
H        0.33640000      -2.60440000       0.27780000
H        3.38100000      -3.03380000       3.87920000
H        2.85490000      -1.69560000       4.93420000
H        1.84060000      -3.14830000       4.72250000
