19
Properties=species:S:1:pos:R:3 gdb_110635=T pbc="F F F"
C       -0.02110000       1.53040000       0.35150000
C        0.06260000       0.12800000      -0.26440000
C       -1.29300000      -0.58280000      -0.23330000
C       -1.94580000      -1.47310000      -1.28720000
C       -0.98780000      -2.55300000      -1.87240000
O        0.32600000      -2.40620000      -1.30360000
C       -0.68970000      -3.07370000      -0.54520000
C       -1.64550000      -2.00800000       0.10460000
O       -2.56970000      -2.37660000       1.06410000
H        0.95140000       2.03160000       0.32510000
H       -0.73560000       2.16110000      -0.18960000
H       -0.34500000       1.48890000       1.39800000
H        0.42090000       0.19950000      -1.29480000
H        0.81120000      -0.46480000       0.26780000
H       -2.08050000       0.04680000       0.18500000
H       -2.90700000      -1.23820000      -1.72550000
H       -1.06410000      -3.04200000      -2.83560000
H       -0.49700000      -4.07640000      -0.18140000
H       -2.18400000      -2.21560000       1.93290000
