18
Properties=species:S:1:pos:R:3 gdb_91564=T pbc="F F F"
C       -0.15080000       1.52200000      -0.04560000
C        0.02910000       0.01290000      -0.12280000
C        1.26020000      -0.56050000      -0.92380000
C        1.73170000      -1.23830000       0.36690000
O        1.91240000      -0.20000000       1.34630000
C        0.59170000      -0.70290000       1.12710000
C       -0.15130000      -1.25560000       2.31470000
C       -0.80610000      -0.21150000       3.10810000
N       -1.33390000       0.61460000       3.71930000
H        0.76300000       1.99360000       0.32590000
H       -0.37400000       1.93690000      -1.03390000
H       -0.97120000       1.79110000       0.62690000
H       -0.89230000      -0.47650000      -0.45600000
H        0.96940000      -1.26300000      -1.70810000
H        1.95720000       0.17650000      -1.32990000
H        2.31040000      -2.14500000       0.50320000
H       -0.91850000      -1.96410000       1.98070000
H        0.54890000      -1.80260000       2.95440000
