21
Properties=species:S:1:pos:R:3 gdb_111415=T pbc="F F F"
C        0.14250000       1.52900000      -0.20030000
C        0.03100000       0.00070000      -0.23150000
C       -1.37660000      -0.52570000       0.03970000
C       -1.57880000      -2.04760000       0.00000000
O       -0.87040000      -2.61840000       1.10950000
C       -2.17700000      -2.06810000       1.34040000
C       -2.00380000      -0.54720000       1.50550000
C       -1.18830000      -0.10520000       2.71470000
O       -1.87280000      -0.38200000       3.93180000
H        1.16170000       1.85310000      -0.43260000
H       -0.52810000       1.98850000      -0.93510000
H       -0.11710000       1.93720000       0.78150000
H        0.33730000      -0.35770000      -1.22390000
H        0.73290000      -0.44780000       0.47860000
H       -2.08910000      -0.04060000      -0.63760000
H       -1.74410000      -2.69150000      -0.85680000
H       -2.92460000      -2.72960000       1.76340000
H       -2.97220000      -0.03880000       1.51920000
H       -0.20060000      -0.58340000       2.69900000
H       -1.03620000       0.97840000       2.70010000
H       -1.84980000      -1.33450000       4.06650000
