22
Properties=species:S:1:pos:R:3 gdb_117363=T pbc="F F F"
C       -0.58250000       0.95420000       0.74830000
C       -0.02870000      -0.44220000       0.45140000
N       -1.06660000      -1.44700000       0.28940000
C       -1.49950000      -1.86220000      -0.93540000
O       -1.01620000      -1.46520000      -1.98190000
C       -2.66170000      -2.86160000      -0.92540000
C       -2.84950000      -3.69030000       0.32750000
C       -3.68420000      -3.17720000       1.48550000
C       -4.18830000      -4.31030000       0.62770000
H        0.23490000       1.67210000       0.87140000
H       -1.21890000       1.29560000      -0.07300000
H       -1.17710000       0.96050000       1.66830000
H        0.53630000      -0.43320000      -0.48320000
H        0.64830000      -0.76060000       1.25280000
H       -1.55730000      -1.78020000       1.10350000
H       -3.57550000      -2.28750000      -1.12960000
H       -2.50950000      -3.50260000      -1.79930000
H       -1.98520000      -4.28920000       0.60280000
H       -3.36690000      -3.40270000       2.49810000
H       -4.16650000      -2.21070000       1.37590000
H       -5.00530000      -4.10110000      -0.05490000
H       -4.21040000      -5.30660000       1.05450000
