21
Properties=species:S:1:pos:R:3 gdb_95214=T pbc="F F F"
C        0.05940000       1.54710000      -0.10890000
C        0.01430000       0.03000000      -0.03160000
O        0.66960000      -0.48380000      -1.19220000
C        0.38380000      -1.85600000      -1.38780000
C        0.87550000      -2.69690000      -0.22610000
C        2.24290000      -2.39110000       0.31720000
C        1.00990000      -2.00880000       1.11440000
C        0.63220000      -0.53700000       1.26920000
O        1.71840000       0.23820000       1.76320000
H        1.09300000       1.89740000      -0.09080000
H       -0.41970000       1.88850000      -1.02980000
H       -0.45970000       1.98950000       0.74630000
H       -1.03720000      -0.30740000      -0.05630000
H       -0.70210000      -1.99900000      -1.52420000
H        0.88030000      -2.14590000      -2.32020000
H        0.54540000      -3.73150000      -0.23350000
H        2.85650000      -3.20160000       0.69290000
H        2.79460000      -1.60460000      -0.18980000
H        0.83180000      -2.61550000       1.99600000
H       -0.13730000      -0.45350000       2.04590000
H        2.50850000      -0.03830000       1.28750000
