12
Properties=species:S:1:pos:R:3 gdb_129308=T pbc="F F F"
N       -0.00290000       1.33080000       0.01040000
C        0.00050000       0.06080000       0.00330000
O        1.16420000      -0.67140000      -0.00700000
N        1.14970000      -2.14170000      -0.01520000
N        0.07770000      -2.72640000      -0.01260000
C       -1.17790000      -2.05760000      -0.00210000
C       -1.22510000      -0.71160000       0.00560000
C       -2.31070000      -2.90810000      -0.00070000
C       -3.27290000      -3.63000000       0.00050000
H        0.95010000       1.69820000       0.00730000
H       -2.15820000      -0.16420000       0.01370000
H       -4.12180000      -4.26950000       0.00140000
