18
Properties=species:S:1:pos:R:3 gdb_124617=T pbc="F F F"
C       -0.05150000       1.49800000       0.07700000
C       -0.01380000      -0.03330000       0.06250000
C        0.79230000      -0.61650000       1.22710000
N       -1.36950000      -0.58110000       0.05020000
N       -2.24390000      -0.37570000       1.06880000
N       -3.33680000      -0.95700000       0.80210000
N       -3.19140000      -1.56190000      -0.41600000
C       -1.93240000      -1.35370000      -0.95670000
N       -1.34770000      -1.70770000      -2.03600000
H        0.96610000       1.89620000       0.03000000
H       -0.61130000       1.88260000      -0.77990000
H       -0.52380000       1.86490000       0.99280000
H        0.40620000      -0.38140000      -0.88560000
H        0.35140000      -0.32820000       2.18580000
H        0.82180000      -1.70810000       1.17330000
H        1.81960000      -0.24250000       1.19350000
H       -3.95690000      -2.08070000      -0.80800000
H       -1.95060000      -2.27070000      -2.62850000
