20
Properties=species:S:1:pos:R:3 gdb_91550=T pbc="F F F"
O        0.51070000       1.18690000      -0.11570000
C        0.25500000      -0.17780000       0.05290000
C        0.21000000      -0.76010000       1.52030000
C       -1.25100000      -1.12300000       1.27380000
N       -1.92660000       0.15560000       0.90640000
C       -1.21450000      -0.62810000      -0.13390000
C       -1.83210000      -1.09420000      -1.39860000
C       -3.32460000      -1.13420000      -1.62760000
C       -2.48370000      -0.11390000      -2.34940000
H       -0.21310000       1.63590000       0.34330000
H        0.95280000      -0.72190000      -0.58850000
H        0.86360000      -1.62630000       1.64880000
H        0.39290000      -0.03510000       2.31750000
H       -1.82850000      -1.93550000       1.69770000
H       -2.92210000      -0.04220000       0.81940000
H       -1.27160000      -1.89590000      -1.87340000
H       -3.72150000      -1.97210000      -2.18960000
H       -3.99100000      -0.78150000      -0.84720000
H       -2.55710000       0.91760000      -2.02370000
H       -2.31270000      -0.23790000      -3.41250000
