19
Properties=species:S:1:pos:R:3 gdb_57710=T pbc="F F F"
C        0.06560000       1.60680000       0.00290000
C       -0.09190000       0.07000000      -0.03340000
C        0.44010000      -0.55150000       1.27670000
C       -1.57990000      -0.30240000      -0.24130000
O       -2.38400000       0.21730000       0.82140000
C       -3.08590000      -0.64670000       1.58110000
O       -3.77370000      -0.29450000       2.49020000
C        0.63850000      -0.48260000      -1.17810000
C        1.21910000      -0.94520000      -2.12380000
H        1.11430000       1.87760000       0.14820000
H       -0.27540000       2.05610000      -0.93400000
H       -0.52370000       2.02230000       0.82390000
H       -0.10300000      -0.14820000       2.13570000
H        0.33210000      -1.64030000       1.26990000
H        1.50060000      -0.31950000       1.40110000
H       -1.94770000       0.13490000      -1.17390000
H       -1.68990000      -1.39180000      -0.30210000
H       -2.95320000      -1.69980000       1.26410000
H        1.74240000      -1.34870000      -2.95530000
