16
Properties=species:S:1:pos:R:3 gdb_34605=T pbc="F F F"
N       -0.01650000      -1.22830000      -0.28000000
C       -0.06410000      -0.08700000      -0.08720000
C       -0.07300000       1.32280000       0.15400000
C       -1.22060000       2.00780000       0.05810000
C       -1.34470000       3.48560000       0.27250000
C       -0.10490000       4.12940000       0.84790000
O        0.34120000       3.61630000       2.10630000
C        1.15570000       3.38200000       0.95490000
C        1.26410000       1.94850000       0.49100000
H       -2.13000000       1.47340000      -0.19960000
H       -1.58880000       3.97080000      -0.68420000
H       -2.20160000       3.69080000       0.92870000
H       -0.06260000       5.21580000       0.76910000
H        2.09360000       3.93750000       0.95190000
H        1.76610000       1.35210000       1.26300000
H        1.91820000       1.90770000      -0.39040000
