16
Properties=species:S:1:pos:R:3 gdb_3084=T pbc="F F F"
C       -0.09800000       1.56680000       0.08580000
C        0.02340000       0.06520000      -0.04340000
C        0.68820000      -0.61400000      -1.20820000
C        1.30280000       0.13570000      -2.36870000
C        1.36040000      -0.65080000       0.16700000
C        2.55010000       0.11650000       0.39870000
N        3.50860000       0.73920000       0.58260000
H        0.79870000       2.08770000      -0.25620000
H       -0.94850000       1.93480000      -0.49770000
H       -0.26100000       1.84950000       1.13060000
H       -0.81480000      -0.47910000       0.38360000
H        0.25300000      -1.56990000      -1.48730000
H        1.82300000       1.04140000      -2.05010000
H        2.03210000      -0.49370000      -2.88820000
H        0.53200000       0.42270000      -3.09160000
H        1.34090000      -1.59250000       0.70500000
