16
Properties=species:S:1:pos:R:3 gdb_68722=T pbc="F F F"
C       -0.03500000       1.52480000       0.03890000
C       -0.04970000       0.02880000       0.02970000
N        1.15650000      -0.71780000      -0.30340000
C        0.56980000      -0.95670000       1.02380000
C        1.34950000      -0.69300000       2.19330000
N        1.96080000      -0.49630000       3.15520000
C       -0.68120000      -1.81390000       0.94750000
N       -1.82590000      -0.95770000       1.33810000
C       -1.27950000      -0.86860000      -0.03660000
H        0.93320000       1.89510000       0.38290000
H       -0.20980000       1.91670000      -0.96930000
H       -0.81890000       1.90420000       0.69970000
H        0.98430000      -1.50550000      -0.92570000
H       -0.73740000      -2.89440000       0.99070000
H       -2.66870000      -1.53440000       1.30620000
H       -1.88880000      -1.08740000      -0.90520000
