19
Properties=species:S:1:pos:R:3 gdb_80894=T pbc="F F F"
O       -0.14010000       1.46680000      -0.01280000
C        0.04560000       0.06100000      -0.01450000
C        0.15010000      -0.61430000       1.38420000
C       -1.37060000      -0.27800000       1.54610000
C       -1.35340000      -0.60920000      -0.00540000
O       -2.34060000      -0.21380000      -0.89390000
C       -1.05980000      -2.11440000       0.03730000
C        0.30300000      -2.63930000      -0.34280000
C        0.06610000      -2.12130000       1.05860000
H        0.71440000       1.88700000       0.12100000
H        0.76640000      -0.21490000      -0.78820000
H        0.89580000      -0.28890000       2.10970000
H       -1.96180000      -0.93630000       2.18690000
H       -1.56860000       0.77170000       1.76110000
H       -2.30890000       0.74990000      -0.93210000
H       -1.91020000      -2.78440000       0.08700000
H        0.36890000      -3.72070000      -0.41840000
H        0.94020000      -2.13060000      -1.05560000
H        0.08300000      -2.82000000       1.88760000
