21
Properties=species:S:1:pos:R:3 gdb_57289=T pbc="F F F"
C       -0.16220000       1.55060000      -0.02110000
C        0.02760000       0.01710000       0.01570000
C        0.80100000      -0.38130000       1.29330000
C       -1.35310000      -0.67850000       0.00520000
C        0.78710000      -0.40510000      -1.16730000
C        1.40800000      -0.76210000      -2.13710000
C        2.14290000      -1.15370000      -3.30910000
C        3.06270000      -2.30880000      -3.30660000
O        1.79120000      -2.40160000      -3.93440000
H        0.80310000       2.06500000      -0.01820000
H       -0.70780000       1.85570000      -0.91830000
H       -0.72970000       1.87890000       0.85620000
H        0.24170000      -0.07190000       2.18280000
H        0.94860000      -1.46390000       1.33910000
H        1.78380000       0.09770000       1.32130000
H       -1.91870000      -0.41120000      -0.89160000
H       -1.24320000      -1.76620000       0.02560000
H       -1.93230000      -0.37310000       0.88330000
H        2.34640000      -0.35520000      -4.02230000
H        3.92300000      -2.30470000      -3.97530000
H        3.17870000      -2.88500000      -2.39060000
