17
Properties=species:S:1:pos:R:3 gdb_72673=T pbc="F F F"
C       -0.15010000       1.55140000      -0.00920000
C        0.01200000       0.05910000       0.03950000
C       -1.22100000      -0.86960000       0.13920000
N       -0.49320000      -1.75970000       1.09350000
C        0.64330000      -0.80650000       1.19200000
C        1.73650000      -1.13020000       0.15370000
O        1.00310000      -0.43990000      -0.88380000
C        0.99940000      -0.32400000       2.50330000
N        1.26660000       0.06810000       3.55870000
H        0.81490000       2.05090000       0.11140000
H       -0.56550000       1.84320000      -0.98040000
H       -0.82880000       1.89960000       0.77460000
H       -2.09570000      -0.36850000       0.57060000
H       -1.50440000      -1.36470000      -0.79350000
H       -0.97400000      -1.90060000       1.97410000
H        2.70460000      -0.65280000       0.34500000
H        1.86110000      -2.19700000      -0.05050000
