17
Properties=species:S:1:pos:R:3 gdb_27886=T pbc="F F F"
C       -0.08510000       1.53620000       0.01080000
C       -0.02230000       0.02790000       0.00240000
C        0.01400000      -0.66510000      -1.20830000
C        0.10380000      -2.05540000      -1.21300000
O        0.13410000      -2.67860000      -2.42600000
C        0.15560000      -2.76690000      -0.01370000
C        0.11610000      -2.06860000       1.19360000
O        0.15880000      -2.70480000       2.39940000
C        0.02630000      -0.67820000       1.20490000
H        0.92180000       1.97140000       0.00170000
H       -0.61200000       1.91870000      -0.86790000
H       -0.59240000       1.90970000       0.90470000
H       -0.02800000      -0.14190000      -2.15670000
H        0.19390000      -3.62970000      -2.29110000
H        0.22090000      -3.85320000      -0.02000000
H        0.21680000      -3.65440000       2.25370000
H       -0.00600000      -0.16540000       2.15940000
