19
Properties=species:S:1:pos:R:3 gdb_71705=T pbc="F F F"
C        0.03060000       1.54730000      -0.00690000
C        0.03400000       0.04990000      -0.04710000
C        0.63010000      -0.89390000      -1.14300000
C       -0.43990000      -1.89040000      -0.75460000
C        0.90770000      -1.88580000      -0.03620000
C        0.59770000      -0.87420000       1.09830000
O        1.62260000      -0.41520000       1.91730000
C       -0.84330000      -1.16740000       1.59860000
C       -1.22870000      -0.89130000       0.12570000
H        1.05310000       1.93970000       0.02000000
H       -0.47010000       1.96700000      -0.88690000
H       -0.48990000       1.91760000       0.88340000
H        1.13270000      -0.71900000      -2.08540000
H       -0.80630000      -2.74570000      -1.30780000
H        1.58070000      -2.73440000      -0.02430000
H        1.99930000      -1.16570000       2.38970000
H       -1.06930000      -2.15050000       2.02400000
H       -1.19250000      -0.37640000       2.26960000
H       -2.23450000      -0.60060000      -0.17430000
