19
Properties=species:S:1:pos:R:3 gdb_90974=T pbc="F F F"
C       -0.09850000       1.54710000      -0.02310000
C        0.06220000       0.04690000       0.01970000
O        0.68460000      -0.41650000      -1.19660000
C        1.37630000      -1.57930000      -0.76800000
C        2.91570000      -1.87580000      -0.78580000
C        3.14880000      -0.49720000      -0.13360000
C        1.89030000      -1.11230000       0.56490000
C        2.67080000      -2.45360000       0.67760000
O        0.88700000      -0.35920000       1.16310000
H        0.87730000       2.02850000      -0.12070000
H       -0.72380000       1.82860000      -0.87470000
H       -0.57730000       1.89440000       0.89590000
H       -0.90510000      -0.46270000       0.14390000
H        0.72510000      -2.46110000      -0.79550000
H        3.50450000      -2.35600000      -1.56420000
H        4.04710000      -0.39400000       0.47850000
H        2.97210000       0.37420000      -0.76220000
H        2.08070000      -3.36980000       0.75520000
H        3.55110000      -2.47490000       1.32210000
