6
Properties=species:S:1:pos:R:3 gdb_26=T pbc="F F F"
O       -0.06780000      -0.04230000       0.00280000
C       -0.00560000       1.16380000       0.00740000
C        1.22990000       1.91340000       0.00030000
C        2.23630000       2.57430000      -0.00530000
H       -0.91670000       1.79470000       0.01780000
H        3.13430000       3.14370000      -0.01040000
