19
Properties=species:S:1:pos:R:3 gdb_92418=T pbc="F F F"
C       -0.63260000       1.40630000       0.01410000
C        0.02760000       0.04580000      -0.03950000
O        1.18220000       0.00140000      -0.91710000
C        1.98070000      -0.64880000       0.08120000
C        2.87390000       0.31960000       0.88370000
C        1.73660000       0.50050000       1.93540000
C        0.84120000      -0.49950000       1.16430000
C        0.29180000      -1.67440000       1.89980000
O        0.50400000      -1.92380000       3.06150000
H        0.06790000       2.18440000       0.32730000
H       -1.00870000       1.67060000      -0.97910000
H       -1.48010000       1.39340000       0.70780000
H       -0.70670000      -0.70730000      -0.36710000
H        2.39080000      -1.60360000      -0.25960000
H        3.77440000      -0.14910000       1.28860000
H        3.15680000       1.20610000       0.31270000
H        1.98430000       0.11270000       2.92460000
H        1.33400000       1.50860000       2.04800000
H       -0.33320000      -2.35540000       1.27540000
