20
Properties=species:S:1:pos:R:3 gdb_65781=T pbc="F F F"
C       -0.02320000       1.60280000       0.00350000
C        0.05940000       0.07430000       0.01810000
C        0.87320000      -0.51920000      -1.15280000
C        1.48510000      -1.81790000      -0.57050000
O        1.20400000      -1.81670000       0.82580000
C        0.85500000      -0.49830000       1.21010000
N       -1.28830000      -0.52000000      -0.01340000
C       -2.22190000      -0.37730000       0.96100000
O       -2.09880000       0.29040000       1.96880000
H        0.97960000       2.03920000       0.03940000
H       -0.51760000       1.95190000      -0.90820000
H       -0.59360000       1.95760000       0.86370000
H        0.25980000      -0.69180000      -2.04240000
H        1.65550000       0.18870000      -1.43710000
H        1.04780000      -2.72590000      -1.00010000
H        2.56930000      -1.85490000      -0.74670000
H        1.74990000       0.12220000       1.38430000
H        0.27010000      -0.54280000       2.12850000
H       -1.51090000      -1.14840000      -0.76870000
H       -3.14350000      -0.94950000       0.72980000
