19
Properties=species:S:1:pos:R:3 gdb_120722=T pbc="F F F"
N        0.03490000       0.85310000      -0.55530000
C       -0.04830000      -0.49770000      -0.32860000
O        0.80040000      -1.28020000      -0.72750000
N       -1.14410000      -0.87450000       0.43480000
C       -2.52920000      -0.51710000       0.18940000
C       -2.07910000      -1.95100000       0.16110000
C       -2.11120000      -2.75350000      -1.12630000
C       -1.26340000      -4.03960000      -1.10560000
O        0.09180000      -3.86190000      -1.41320000
H        0.93790000       1.17760000      -0.86290000
H       -0.49040000       1.47760000       0.03490000
H       -3.08240000      -0.12500000       1.03950000
H       -2.76580000      -0.05700000      -0.76790000
H       -2.29490000      -2.54560000       1.04870000
H       -3.16060000      -3.03690000      -1.28390000
H       -1.81270000      -2.13620000      -1.98130000
H       -1.40580000      -4.53110000      -0.12390000
H       -1.66750000      -4.73060000      -1.85600000
H        0.41010000      -3.03070000      -1.01920000
