17
Properties=species:S:1:pos:R:3 gdb_34785=T pbc="F F F"
C       -0.08650000      -1.25270000      -0.08320000
C       -0.03480000      -0.05230000      -0.02370000
C        0.00100000       1.39260000       0.02800000
C        0.08620000       2.12940000       1.40960000
C        1.56120000       1.65220000       1.52010000
C        1.39610000       2.14800000       0.04380000
C        0.61310000       3.36680000       0.63400000
C        2.37720000       2.15700000      -1.00020000
C        3.19820000       2.16410000      -1.87950000
H       -0.12700000      -2.31250000      -0.13590000
H       -0.71890000       1.82750000      -0.67220000
H       -0.67510000       2.11010000       2.18780000
H        2.22260000       2.25330000       2.14800000
H        1.72980000       0.58310000       1.65290000
H       -0.08390000       3.86900000      -0.04190000
H        1.21200000       4.08050000       1.20310000
H        3.92350000       2.16740000      -2.65500000
