14
Properties=species:S:1:pos:R:3 gdb_127716=T pbc="F F F"
C        0.00440000       1.44180000      -0.02420000
N       -0.02340000      -0.00420000       0.03130000
N       -0.19150000      -0.75690000      -1.10240000
N       -0.17630000      -2.00230000      -0.75890000
C        0.00110000      -2.10260000       0.60000000
C        0.07200000      -3.29090000       1.35360000
C        0.14200000      -4.26480000       2.06030000
C        0.09800000      -0.81200000       1.09670000
O        0.27290000      -0.31540000       2.32800000
H        0.96070000       1.82290000       0.34360000
H       -0.12670000       1.72140000      -1.06930000
H       -0.80460000       1.86590000       0.57650000
H        0.20030000      -5.13920000       2.66000000
H        0.33600000      -1.05960000       2.94160000
