16
Properties=species:S:1:pos:R:3 gdb_49780=T pbc="F F F"
O       -0.05250000      -0.04590000      -0.03270000
C        0.02070000       1.16250000      -0.10890000
N        1.18960000       1.86880000      -0.05950000
C        2.45880000       1.30230000       0.12090000
C        3.42460000       2.21930000       0.12560000
C        2.84980000       3.59600000      -0.11520000
C        1.30150000       3.34940000      -0.06670000
C        0.56700000       3.97250000      -1.16030000
C       -0.03090000       4.50900000      -2.05370000
H       -0.85570000       1.82360000      -0.23520000
H        2.51050000       0.22910000       0.22550000
H        4.48000000       2.01730000       0.23390000
H        3.14540000       4.33120000       0.63910000
H        3.14790000       3.99860000      -1.08990000
H        0.90750000       3.73090000       0.88410000
H       -0.56230000       4.97590000      -2.84620000
