22
Properties=species:S:1:pos:R:3 gdb_114895=T pbc="F F F"
C       -0.12020000       1.54510000       0.20400000
C        0.05990000       0.04510000      -0.02020000
N        0.76620000      -0.58140000       1.07890000
C        2.21330000      -0.32000000       1.23970000
C        2.43920000      -1.82520000       1.53330000
O        2.48740000      -2.21790000       2.88900000
C        1.15310000      -2.36070000       3.38470000
C        0.30620000      -2.80460000       2.18130000
C        0.98220000      -2.04690000       1.04060000
H        0.84800000       2.05150000       0.27880000
H       -0.66860000       1.99790000      -0.62770000
H       -0.67030000       1.73170000       1.13090000
H       -0.92260000      -0.43600000      -0.10510000
H        0.57900000      -0.12340000      -0.98640000
H        2.70910000      -0.00810000       0.30560000
H        2.47640000       0.38230000       2.03760000
H        3.27070000      -2.30000000       1.01050000
H        1.18140000      -3.08740000       4.20090000
H        0.78300000      -1.40380000       3.77660000
H        0.39320000      -3.88470000       2.02060000
H       -0.75010000      -2.54700000       2.29210000
H        0.85810000      -2.50120000       0.04980000
