21
Properties=species:S:1:pos:R:3 gdb_84291=T pbc="F F F"
C       -0.26550000       1.54390000      -0.07930000
C        0.03660000       0.03850000      -0.02800000
C        0.92050000      -0.41940000      -1.16490000
C        1.92900000      -1.20970000      -0.78230000
C        1.88910000      -1.40000000       0.68180000
O        2.61220000      -2.10380000       1.35100000
C        0.74760000      -0.51800000       1.24930000
C        1.41150000       0.56060000       2.12630000
C       -0.18480000      -1.38300000       2.11040000
H        0.64460000       2.14780000      -0.02860000
H       -0.77820000       1.79320000      -1.01440000
H       -0.91860000       1.84460000       0.74520000
H       -0.92910000      -0.47720000      -0.13540000
H        0.71290000      -0.12380000      -2.18950000
H        2.67420000      -1.67700000      -1.41350000
H        2.09700000       1.19280000       1.55360000
H        0.66430000       1.20620000       2.59750000
H        1.99190000       0.07090000       2.91320000
H        0.38760000      -1.87660000       2.90060000
H       -0.96690000      -0.77270000       2.57480000
H       -0.67230000      -2.16110000       1.51330000
