12
Properties=species:S:1:pos:R:3 gdb_807=T pbc="F F F"
O        0.80770000      -0.42260000      -0.52360000
C       -0.18720000       0.39500000       0.05010000
C       -1.49990000      -0.36040000       0.09150000
N       -2.58040000       0.15200000       0.56890000
O       -2.34820000       1.45410000       1.01840000
C       -1.57910000      -1.68930000      -0.40790000
C       -1.63200000      -2.81320000      -0.83360000
H        1.62840000       0.07770000      -0.53760000
H        0.05870000       0.70010000       1.07920000
H       -0.35020000       1.32380000      -0.51860000
H       -3.21570000       1.71680000       1.34420000
H       -1.67860000      -3.80530000      -1.20940000
