14
Properties=species:S:1:pos:R:3 gdb_126078=T pbc="F F F"
C        0.02760000       1.52400000      -0.29090000
C       -0.04830000       0.06130000       0.04730000
O        1.15000000      -0.70900000      -0.05120000
C        0.57910000      -0.55750000       1.24190000
C        1.34800000       0.20210000       2.24520000
N        2.31630000       1.04800000       2.02770000
O        2.68430000       1.46560000       3.26170000
N        1.89510000       0.82590000       4.21110000
N        1.09850000       0.06910000       3.60260000
H        0.90410000       1.99480000       0.15780000
H        0.08780000       1.64820000      -1.37680000
H       -0.87450000       2.03820000       0.05660000
H       -0.92980000      -0.46140000      -0.32910000
H        0.11720000      -1.44910000       1.66390000
