18
Properties=species:S:1:pos:R:3 gdb_14911=T pbc="F F F"
C        0.01960000      -1.19940000      -0.04240000
C        0.03770000       0.00110000      -0.01100000
C        0.01050000       1.45950000       0.04780000
C       -0.75080000       1.97520000       1.28550000
C       -0.69490000       3.50800000       1.33840000
C        0.75690000       3.99140000       1.21930000
C        1.42040000       3.35380000      -0.00230000
O        1.35370000       1.93550000       0.03960000
H        0.01520000      -2.26070000      -0.07800000
H       -0.50520000       1.83660000      -0.85530000
H       -1.78390000       1.61470000       1.25140000
H       -0.28030000       1.54370000       2.17610000
H       -1.28500000       3.92140000       0.50870000
H       -1.15450000       3.87370000       2.26240000
H        0.80340000       5.08330000       1.13790000
H        1.31950000       3.70500000       2.11610000
H        0.94110000       3.72490000      -0.92550000
H        2.48470000       3.59960000      -0.05590000
