17
Properties=species:S:1:pos:R:3 gdb_45735=T pbc="F F F"
O       -0.09950000       0.05340000       0.00760000
C       -0.09180000       1.25690000       0.01310000
C       -1.32180000       2.17610000       0.03420000
C       -0.71210000       3.55160000       0.03180000
C        0.62290000       3.52010000       0.01330000
C        1.17120000       2.12820000      -0.00030000
C        2.28490000       1.73130000       1.01330000
O        3.24000000       1.48820000      -0.03120000
C        2.25690000       1.74030000      -1.04730000
H       -1.96060000       1.97200000      -0.83460000
H       -1.93610000       1.96430000       0.91870000
H       -1.30980000       4.45560000       0.04400000
H        1.26740000       4.39240000       0.00820000
H        2.60230000       2.53140000       1.69280000
H        2.05780000       0.82320000       1.58480000
H        2.01420000       0.83720000      -1.62020000
H        2.55590000       2.54630000      -1.72810000
