15
Properties=species:S:1:pos:R:3 gdb_27185=T pbc="F F F"
O       -0.34940000       1.37110000       0.15220000
C       -0.06370000       0.06190000       0.02180000
C        0.23520000      -0.61440000      -1.12100000
O        0.45030000      -1.92820000      -0.73880000
C        0.26710000      -1.94020000       0.59330000
N       -0.03710000      -0.79060000       1.10700000
C        0.34380000      -0.25120000      -2.53320000
C        1.24360000      -0.99400000      -3.45860000
N       -0.21580000      -1.12310000      -3.59270000
H       -0.52080000       1.52910000       1.08830000
H        0.38560000      -2.88590000       1.09770000
H        0.17680000       0.80830000      -2.70360000
H        1.73500000      -0.46420000      -4.26990000
H        1.80540000      -1.82740000      -3.04680000
H       -0.51520000      -2.00040000      -3.17190000
