23
Properties=species:S:1:pos:R:3 gdb_73004=T pbc="F F F"
C       -0.00590000       1.56990000       0.00770000
C       -0.00450000       0.06820000       0.02440000
C       -0.77240000      -0.81040000      -0.97960000
C       -1.13030000      -1.80450000       0.17210000
C       -0.33920000      -0.93210000       1.15010000
C        1.07360000      -0.75120000       0.66730000
C        2.02850000      -1.82000000       0.10430000
C        3.01030000      -1.48240000       1.26460000
C        2.18200000      -0.20390000       1.58340000
H        0.54510000       1.95830000      -0.85870000
H       -1.02590000       1.96800000      -0.04810000
H        0.46330000       1.98230000       0.90650000
H       -1.65640000      -0.31290000      -1.38720000
H       -0.18590000      -1.20950000      -1.81450000
H       -2.20180000      -1.81980000       0.38390000
H       -0.78740000      -2.83870000       0.05810000
H       -0.60560000      -0.73780000       2.18450000
H        1.65800000      -2.84770000       0.06010000
H        2.42980000      -1.55590000      -0.87990000
H        2.96350000      -2.21730000       2.07200000
H        4.05770000      -1.33190000       0.99440000
H        2.64860000       0.70590000       1.19080000
H        1.92300000      -0.03020000       2.63180000
