9
Properties=species:S:1:pos:R:3 gdb_14=T pbc="F F F"
C       -0.00860000       1.50200000      -0.00680000
C        0.01100000      -0.01760000      -0.01380000
O        0.68090000      -0.44040000      -1.19310000
H        1.01150000       1.89660000      -0.01920000
H       -0.53160000       1.88080000      -0.88970000
H       -0.51670000       1.87610000       0.88710000
H        0.52380000      -0.38910000       0.88820000
H       -1.02030000      -0.40510000       0.01690000
H        0.69530000      -1.40180000      -1.20150000
