19
Properties=species:S:1:pos:R:3 gdb_51534=T pbc="F F F"
O       -0.62400000       1.65090000       1.15570000
C        0.14240000       1.24830000       0.31850000
C        1.41250000       1.95520000      -0.09740000
C        1.26020000       2.54990000      -1.50660000
C        0.35080000       3.81190000      -1.56830000
C        1.62380000       4.71660000      -1.61470000
C        2.45740000       3.43820000      -1.94940000
C        1.63280000       5.80190000      -2.65360000
O        1.88910000       6.96080000      -2.45390000
H       -0.06850000       0.30850000      -0.24440000
H        1.63530000       2.73550000       0.63710000
H        2.23610000       1.22850000      -0.10240000
H        0.99470000       1.75370000      -2.20910000
H       -0.22120000       3.86450000      -2.49990000
H       -0.33030000       3.97730000      -0.73120000
H        1.87690000       5.15000000      -0.64570000
H        3.39890000       3.31930000      -1.40820000
H        2.65930000       3.35140000      -3.02180000
H        1.37310000       5.43970000      -3.67930000
