16
Properties=species:S:1:pos:R:3 gdb_32366=T pbc="F F F"
O       -0.01180000       1.45270000       0.00710000
C        0.01530000       0.03890000       0.00200000
C       -1.39340000      -0.48710000       0.01260000
C       -2.46350000       0.32710000       0.02390000
O       -3.74170000      -0.11790000       0.03350000
C       -4.04810000      -1.48010000       0.03220000
N       -5.25830000      -1.86900000       0.04140000
C       -2.90990000      -2.37860000       0.02010000
C       -1.64680000      -1.90750000       0.01080000
H        0.89380000       1.77360000       0.00010000
H        0.54060000      -0.34870000      -0.88820000
H        0.55620000      -0.35480000       0.88010000
H       -2.40820000       1.40630000       0.02650000
H       -5.89220000      -1.06940000       0.04890000
H       -3.14290000      -3.43540000       0.01920000
H       -0.80610000      -2.59580000       0.00180000
