24
Properties=species:S:1:pos:R:3 gdb_10225=T pbc="F F F"
C       -0.57250000       1.08610000       1.04650000
C       -0.39100000      -0.38020000       0.64390000
C        0.49460000      -0.55310000      -0.59610000
C        0.68490000      -2.01650000      -1.04820000
C       -0.57860000      -2.56220000      -1.75240000
C       -0.74300000      -4.08600000      -1.72030000
C        1.93340000      -2.10300000      -1.93020000
O        2.20440000      -3.45760000      -2.26560000
H        0.39160000       1.56070000       1.26190000
H       -1.04990000       1.66080000       0.24490000
H       -1.19670000       1.18090000       1.94050000
H        0.05320000      -0.93740000       1.47930000
H       -1.37520000      -0.83140000       0.46960000
H        0.07560000       0.03040000      -1.42860000
H        1.47560000      -0.10750000      -0.38090000
H        0.87940000      -2.62810000      -0.15510000
H       -1.46350000      -2.10790000      -1.29090000
H       -0.57460000      -2.21200000      -2.79410000
H       -1.66750000      -4.38690000      -2.22470000
H        0.09820000      -4.58260000      -2.20500000
H       -0.79780000      -4.44940000      -0.68760000
H        1.77430000      -1.49690000      -2.83860000
H        2.78690000      -1.66220000      -1.39040000
H        2.96230000      -3.47400000      -2.85680000
