16
Properties=species:S:1:pos:R:3 gdb_76215=T pbc="F F F"
C       -0.09510000       1.56700000      -0.00010000
C        0.02970000       0.03630000      -0.03110000
C        0.81900000      -0.53580000      -1.18920000
N        0.43960000      -0.26000000      -2.45250000
C        1.86590000      -1.32100000      -0.79660000
C        1.95980000      -1.39920000       0.64560000
O        2.74130000      -1.99950000       1.35220000
C        0.80880000      -0.50400000       1.17870000
O        0.57600000      -0.24650000       2.32790000
H        0.88610000       2.04270000      -0.09080000
H       -0.73660000       1.94680000      -0.80170000
H       -0.53270000       1.86590000       0.95560000
H       -0.97800000      -0.40280000      -0.01620000
H       -0.31000000       0.38230000      -2.63880000
H        0.97470000      -0.58930000      -3.23830000
H        2.54760000      -1.83200000      -1.46490000
