17
Properties=species:S:1:pos:R:3 gdb_71502=T pbc="F F F"
C        0.00890000       1.51270000      -0.03170000
C        0.02160000       0.00990000      -0.04060000
C        0.59200000      -0.95750000      -1.10950000
C        0.01780000      -1.89550000      -0.02530000
C        0.57210000      -0.94450000       1.06400000
O       -0.30870000      -0.92830000       2.19650000
C       -1.55280000      -0.93410000       1.60350000
O       -2.58360000      -0.92020000       2.20550000
C       -1.22780000      -0.95180000       0.12740000
H        1.02620000       1.90910000      -0.11780000
H       -0.57780000       1.90770000      -0.86730000
H       -0.42570000       1.89390000       0.89830000
H        0.08160000      -0.96560000      -2.07530000
H        1.67880000      -0.95860000      -1.24100000
H        0.00310000      -2.98480000      -0.00370000
H        1.61270000      -0.94540000       1.38240000
H       -2.04650000      -0.95720000      -0.58810000
