18
Properties=species:S:1:pos:R:3 gdb_16183=T pbc="F F F"
O        0.06840000       1.42880000       0.35590000
C        0.07690000       0.04740000       0.01810000
C       -1.30680000      -0.51680000      -0.16220000
C       -2.07460000      -1.04910000       1.04790000
C       -1.63090000      -1.98050000      -0.05280000
O       -2.55440000      -2.36080000      -1.03590000
C       -3.16880000      -1.17380000      -1.54240000
C       -2.16330000      -0.02260000      -1.32270000
H       -0.47050000       1.52430000       1.14860000
H        0.63910000      -0.01740000      -0.92080000
H        0.62520000      -0.54300000       0.77020000
H       -1.53280000      -1.10970000       1.98730000
H       -3.13000000      -0.82330000       1.15710000
H       -0.89420000      -2.75310000       0.13560000
H       -3.41310000      -1.34660000      -2.59390000
H       -4.10880000      -0.97950000      -1.00750000
H       -2.66650000       0.92840000      -1.12870000
H       -1.52180000       0.11460000      -2.20030000
