22
Properties=species:S:1:pos:R:3 gdb_113208=T pbc="F F F"
C        0.48180000       1.34540000      -0.98230000
C        0.07910000       0.12360000      -0.17650000
N        1.08330000      -0.96820000      -0.15380000
C        0.76620000      -0.23900000       1.09530000
C        1.93640000       0.50010000       1.70770000
O        2.91750000      -0.41860000       2.16050000
C       -1.36860000      -0.24250000      -0.37590000
C       -2.15780000      -1.14460000       0.54000000
C       -2.45870000       0.33240000       0.49620000
H        1.55740000       1.52000000      -0.94440000
H        0.20830000       1.20400000      -2.03410000
H       -0.03640000       2.24000000      -0.62090000
H        0.60120000      -1.86450000      -0.15270000
H        0.18290000      -0.78400000       1.83430000
H        2.36520000       1.21550000       0.99390000
H        1.60970000       1.06440000       2.58780000
H        3.11940000      -0.97440000       1.39760000
H       -1.62510000      -0.33220000      -1.42980000
H       -2.86270000      -1.82710000       0.07820000
H       -1.69220000      -1.54040000       1.43550000
H       -2.14810000       0.92550000       1.34990000
H       -3.37970000       0.66560000       0.03080000
