17
Properties=species:S:1:pos:R:3 gdb_41488=T pbc="F F F"
C       -0.09160000       1.45380000      -0.19100000
O        1.15620000       1.66160000       0.52000000
C        1.53320000       0.26430000       0.43380000
C        1.24900000      -0.52140000       1.73330000
C       -0.21700000      -0.76490000       1.25350000
O       -0.55160000      -2.08320000       0.84680000
C       -0.20970000      -2.20670000      -0.51970000
O       -0.29570000      -0.91630000      -1.10190000
C        0.09120000      -0.04920000      -0.09130000
H       -0.95060000       1.89830000       0.32430000
H       -0.03970000       1.83380000      -1.21930000
H        2.47170000       0.11550000      -0.10580000
H        1.81410000      -1.45420000       1.81440000
H        1.36040000       0.05650000       2.65280000
H       -1.01980000      -0.38690000       1.89050000
H        0.81640000      -2.59710000      -0.63150000
H       -0.92340000      -2.87080000      -1.01340000
