17
Properties=species:S:1:pos:R:3 gdb_51677=T pbc="F F F"
O       -0.48690000       0.08430000      -0.26270000
C       -0.28360000       1.25210000      -0.12880000
O        0.94690000       1.75970000       0.08400000
C        1.09670000       3.16950000       0.21690000
C        1.88200000       3.64540000       1.47220000
C        2.88590000       4.37420000       0.54160000
O        4.05330000       3.58470000       0.26660000
C        3.44000000       3.00680000      -0.91360000
C        2.14710000       3.81960000      -0.71360000
H       -1.06800000       2.03400000      -0.16170000
H        0.11610000       3.65000000       0.12680000
H        1.30340000       4.28200000       2.14560000
H        2.34930000       2.83860000       2.03960000
H        3.11600000       5.42380000       0.73530000
H        3.99950000       3.27100000      -1.81800000
H        3.34130000       1.91860000      -0.84920000
H        1.78590000       4.41210000      -1.55290000
