19
Properties=species:S:1:pos:R:3 gdb_52814=T pbc="F F F"
C        0.00360000       1.49140000      -0.02050000
C       -0.01310000       0.03620000      -0.00750000
C       -0.02720000      -1.16810000       0.01180000
C       -0.03910000      -2.62530000       0.01790000
C        1.00230000      -3.21150000      -0.92940000
O        0.16250000      -3.18390000       1.37090000
C       -1.05950000      -3.91480000       1.26580000
C       -2.23380000      -2.99530000       1.15030000
C       -1.40950000      -3.32490000      -0.07480000
H        0.78310000       1.87640000      -0.68700000
H       -0.95590000       1.89750000      -0.35950000
H        0.19660000       1.89010000       0.98150000
H        2.00210000      -2.88580000      -0.63180000
H        0.96010000      -4.30360000      -0.89850000
H        0.81660000      -2.87460000      -1.95420000
H       -1.07880000      -4.92680000       1.65260000
H       -3.20870000      -3.47290000       1.17540000
H       -2.18680000      -2.00490000       1.59310000
H       -1.81040000      -3.76850000      -0.97620000
