16
Properties=species:S:1:pos:R:3 gdb_57075=T pbc="F F F"
O        0.27440000       1.52640000       0.10310000
C        0.07540000       0.12280000       0.04710000
C        0.60880000      -0.44430000      -1.20620000
N        1.03680000      -0.89540000      -2.17970000
C        0.70720000      -0.54540000       1.27860000
O        2.01200000       0.01410000       1.53610000
C        1.60730000       0.50740000       2.84190000
C        0.16780000      -0.02620000       2.64700000
O       -0.88770000       0.88780000       2.63010000
H        1.22460000       1.64040000       0.25930000
H       -1.00650000      -0.04490000       0.07330000
H        0.74140000      -1.63350000       1.15590000
H        2.19280000       0.04490000       3.64330000
H        1.68230000       1.59860000       2.91380000
H       -0.11690000      -0.82020000       3.33940000
H       -0.68150000       1.56090000       1.96480000
