19
Properties=species:S:1:pos:R:3 gdb_94075=T pbc="F F F"
O       -0.06130000       1.44500000      -0.04390000
C        0.00970000       0.02800000       0.00130000
C       -1.41660000      -0.51240000       0.05180000
C       -1.41560000      -2.04190000      -0.06780000
C       -0.60200000      -2.48100000      -1.30100000
O        0.72110000      -1.94840000      -1.25090000
C        0.72160000      -0.53140000      -1.23850000
C       -0.50880000      -3.93330000      -1.40930000
C       -0.47200000      -5.13140000      -1.48420000
H        0.83290000       1.79490000       0.02360000
H        0.55530000      -0.31230000       0.89610000
H       -1.90780000      -0.19130000       0.97530000
H       -1.97680000      -0.06700000      -0.78090000
H       -0.96180000      -2.49920000       0.81830000
H       -2.43610000      -2.42870000      -0.14920000
H       -1.10550000      -2.09160000      -2.20470000
H        0.22970000      -0.12530000      -2.13860000
H        1.77390000      -0.22820000      -1.26030000
H       -0.42880000      -6.19000000      -1.55810000
