16
Properties=species:S:1:pos:R:3 gdb_47022=T pbc="F F F"
O       -0.01310000      -0.03900000      -0.03500000
C        0.01840000       1.17660000       0.01610000
C       -1.32680000       1.93390000       0.19900000
O       -1.24650000       3.27150000       0.70310000
C       -0.31930000       3.97720000      -0.06430000
C        0.44730000       5.18710000       0.55340000
N        1.69060000       4.50460000       0.09120000
C        1.02990000       3.30890000      -0.08200000
C        1.23610000       1.98160000      -0.03900000
H       -1.84970000       1.92660000      -0.77230000
H       -1.92740000       1.36270000       0.90820000
H       -0.70940000       4.21060000      -1.06710000
H        0.28090000       6.17500000       0.11950000
H        0.34490000       5.21570000       1.64240000
H        2.59540000       4.59480000       0.53330000
H        2.19990000       1.49620000       0.06030000
