13
Properties=species:S:1:pos:R:3 gdb_80788=T pbc="F F F"
O        0.14520000       1.37930000      -0.12620000
C        0.09580000       0.00690000      -0.06780000
C        0.00940000      -0.67510000       1.34330000
N       -1.41470000      -0.11010000       1.39730000
C       -1.33160000      -0.68310000      -0.02200000
C       -2.40970000      -0.60990000      -0.95970000
N       -3.26960000      -0.57350000      -1.73230000
C       -0.60920000      -1.89660000       0.64920000
O       -0.67300000      -3.07850000       0.71210000
H       -0.49940000       1.71170000       0.51630000
H        0.80730000      -0.40860000      -0.78040000
H        0.69090000      -0.59480000       2.18550000
H       -2.02890000      -0.67200000       1.99180000
