18
Properties=species:S:1:pos:R:3 gdb_72796=T pbc="F F F"
C        0.16010000       1.66810000       0.12320000
C       -0.04430000       0.15570000       0.11240000
C        0.68120000      -0.54190000      -1.08290000
O        1.73930000      -0.98990000      -0.15680000
C        0.93350000      -0.66580000       0.90310000
N        0.86930000      -1.15100000       2.05930000
C       -0.41290000      -0.71960000       2.65970000
C       -1.55570000      -0.90140000       1.64450000
O       -1.38540000      -0.14800000       0.43050000
H        1.19010000       1.93070000      -0.13460000
H       -0.51460000       2.12680000      -0.60650000
H       -0.07220000       2.08200000       1.10730000
H        0.14590000      -1.40200000      -1.49130000
H        1.08560000       0.09450000      -1.87170000
H       -0.61600000      -1.34540000       3.53350000
H       -0.36910000       0.31990000       3.01080000
H       -1.63560000      -1.97050000       1.40240000
H       -2.50890000      -0.57240000       2.06940000
