19
Properties=species:S:1:pos:R:3 gdb_81078=T pbc="F F F"
O        0.76590000       1.03000000      -0.32100000
C        0.30940000      -0.25570000       0.00750000
C       -0.23800000      -0.58870000       1.43010000
C       -1.42130000       0.37010000       1.15710000
C       -1.22110000      -0.49480000      -0.12580000
N       -1.08080000      -1.68850000       0.81670000
C       -2.03430000      -0.53830000      -1.37070000
C       -3.43460000      -0.04690000      -1.37010000
N       -2.38130000       0.72200000      -2.05170000
H        1.69330000       1.10100000      -0.07380000
H        0.93430000      -1.04520000      -0.43650000
H        0.30650000      -0.73920000       2.36310000
H       -2.32850000       0.15640000       1.72290000
H       -1.18440000       1.43030000       1.08390000
H       -0.46560000      -2.38910000       0.38430000
H       -1.76480000      -1.34080000      -2.05600000
H       -4.16610000      -0.50370000      -2.03040000
H       -3.83730000       0.32750000      -0.43310000
H       -2.09120000       1.50650000      -1.47180000
