19
Properties=species:S:1:pos:R:3 gdb_118329=T pbc="F F F"
C        0.27030000       1.11510000      -0.70720000
C        0.10750000      -0.35780000      -0.34760000
N       -1.22880000      -0.61920000       0.18900000
C       -1.46600000      -1.98040000       0.61300000
C       -2.24470000      -2.02280000       1.92380000
O       -2.46290000      -1.04100000       2.58740000
C       -2.23230000      -2.86160000      -0.40440000
N       -2.74160000      -2.16440000      -1.44340000
O       -2.35410000      -4.05750000      -0.21980000
H        1.26400000       1.30320000      -1.12330000
H       -0.47850000       1.42230000      -1.44330000
H        0.15320000       1.75060000       0.17780000
H        0.24080000      -0.97620000      -1.24390000
H        0.90060000      -0.65900000       0.35980000
H       -1.43220000      -0.00560000       0.97510000
H       -0.53950000      -2.54590000       0.81860000
H       -2.58960000      -3.03230000       2.21470000
H       -2.61510000      -1.16320000      -1.44920000
H       -3.30220000      -2.63570000      -2.13270000
