17
Properties=species:S:1:pos:R:3 gdb_96779=T pbc="F F F"
C        0.01290000       1.39390000       0.13690000
N        0.00010000      -0.05650000       0.06240000
C       -1.10490000      -0.66120000      -0.03080000
C       -1.21450000      -2.15430000      -0.13520000
O       -1.97130000      -2.71760000       0.96100000
C       -2.64600000      -2.46980000      -0.27110000
C       -3.39540000      -1.15370000      -0.30110000
C       -3.38980000      -0.32310000       0.92930000
N       -2.41110000      -0.06170000      -0.15290000
H        0.82610000       1.77160000      -0.49130000
H       -0.93440000       1.85810000      -0.16140000
H        0.24190000       1.69680000       1.16600000
H       -0.38670000      -2.75280000      -0.50020000
H       -3.02780000      -3.33900000      -0.79720000
H       -4.15290000      -1.01920000      -1.06750000
H       -4.13120000       0.46060000       1.05400000
H       -3.02720000      -0.78870000       1.83850000
