20
Properties=species:S:1:pos:R:3 gdb_33536=T pbc="F F F"
N       -0.30770000      -1.34320000      -0.12450000
C       -0.18820000      -0.19600000      -0.03400000
C       -0.02360000       1.24670000       0.09420000
C       -0.07420000       1.79410000       1.56780000
C        1.20840000       2.61910000       1.28380000
C        1.46250000       1.75630000       0.02000000
C       -0.94950000       2.00770000      -0.84370000
C       -1.28230000       1.51080000      -2.22630000
C       -2.34630000       1.53700000      -1.15460000
H       -0.98550000       2.33520000       1.82990000
H        0.09120000       1.00180000       2.30020000
H        0.99150000       3.66260000       1.04290000
H        1.98240000       2.59960000       2.05270000
H        2.17660000       0.95040000       0.19980000
H        1.73100000       2.26830000      -0.90620000
H       -0.82310000       3.08260000      -0.74460000
H       -1.33390000       2.23640000      -3.03020000
H       -0.90270000       0.53870000      -2.52170000
H       -2.66250000       0.58200000      -0.74910000
H       -3.13250000       2.28070000      -1.21850000
