21
Properties=species:S:1:pos:R:3 gdb_119339=T pbc="F F F"
C        0.08430000       1.64110000      -0.02250000
C        0.13440000       0.11210000      -0.06270000
C        0.60280000      -0.50560000       1.26410000
C        0.65550000      -1.99950000       1.24540000
C        1.32170000      -3.04580000       2.14280000
C        0.01030000      -3.80770000       2.32330000
C       -0.39760000      -3.15850000       0.97700000
O        0.49490000      -3.77700000       0.00850000
C        1.54130000      -3.02190000       0.61640000
H        1.07190000       2.06510000       0.19120000
H       -0.25480000       2.05360000      -0.97770000
H       -0.60130000       1.99590000       0.75530000
H       -0.85850000      -0.28300000      -0.31190000
H        0.80290000      -0.21920000      -0.86650000
H        1.60320000      -0.12500000       1.51340000
H       -0.05540000      -0.16680000       2.07720000
H        2.12960000      -2.89920000       2.84910000
H        0.02250000      -4.90210000       2.34920000
H       -0.57190000      -3.40880000       3.15820000
H       -1.42750000      -3.08540000       0.63270000
H        2.50430000      -2.96150000       0.12570000
