15
Properties=species:S:1:pos:R:3 gdb_130742=T pbc="F F F"
O       -0.00220000       0.01920000      -0.48440000
C        0.01670000       1.18560000      -0.21050000
O       -1.11340000       2.01580000      -0.14320000
C       -0.64970000       3.23910000       0.19370000
N        0.62190000       3.31150000       0.35260000
N        1.05090000       2.02590000       0.10090000
C        2.43190000       1.64590000       0.16610000
C        3.50170000       2.60310000      -0.27420000
C        3.33850000       2.26230000       1.19210000
H       -1.35540000       4.04620000       0.30300000
H        2.52450000       0.59300000      -0.06840000
H        4.34780000       2.20100000      -0.81960000
H        3.17810000       3.58880000      -0.58710000
H        2.90880000       3.02770000       1.82770000
H        4.07040000       1.62260000       1.67160000
