16
Properties=species:S:1:pos:R:3 gdb_34913=T pbc="F F F"
C        0.05390000      -1.22510000       0.01750000
C        0.03250000      -0.02410000       0.03710000
C       -0.00570000       1.43160000       0.03990000
C       -0.71260000       2.06270000       1.25720000
N       -0.07120000       1.82510000       2.55370000
C        0.17180000       3.10120000       1.85140000
C        1.46670000       3.11640000       1.06090000
O        2.21070000       1.89840000       1.12220000
C        1.37790000       2.10890000      -0.00930000
H        0.08350000      -2.28640000       0.01620000
H       -0.54710000       1.77280000      -0.85430000
H       -1.79170000       2.16930000       1.21300000
H       -0.75390000       1.97210000       3.29380000
H       -0.21060000       4.03000000       2.25980000
H        2.04960000       4.02970000       0.98160000
H        1.89060000       2.17860000      -0.96610000
