21
Properties=species:S:1:pos:R:3 gdb_90778=T pbc="F F F"
C        0.04400000       1.49480000       0.07280000
C       -0.00280000      -0.00480000       0.00750000
C       -1.28500000      -0.83760000      -0.10830000
C       -0.54270000      -2.02480000       0.58370000
C        0.61390000      -1.04420000       0.93590000
C        1.18520000      -0.83820000      -0.44920000
C        0.93820000      -2.06080000      -1.33260000
C        0.05480000      -2.98740000      -0.44980000
O        0.80690000      -4.02160000       0.17040000
H        1.04240000       1.85090000       0.34830000
H       -0.21090000       1.94340000      -0.89530000
H       -0.66490000       1.88320000       0.81350000
H       -2.07330000      -0.43350000       0.53320000
H       -1.70310000      -1.01390000      -1.10740000
H       -1.07200000      -2.52910000       1.39130000
H        1.14270000      -0.92100000       1.87270000
H        2.11670000      -0.29020000      -0.54390000
H        0.44510000      -1.80070000      -2.27550000
H        1.86700000      -2.58080000      -1.58490000
H       -0.71650000      -3.50290000      -1.03030000
H        1.47350000      -3.59690000       0.72310000
