15
Properties=species:S:1:pos:R:3 gdb_27680=T pbc="F F F"
C       -0.01730000       1.55720000       0.05010000
C        0.02460000       0.06370000       0.05090000
C        0.01610000      -0.75260000      -1.05030000
O        0.06380000      -2.08230000      -0.65410000
C        0.10190000      -2.07960000       0.69020000
N        0.22060000      -3.31320000       1.28180000
C        0.07920000      -0.80040000       1.18490000
C       -0.03580000      -0.47710000      -2.42490000
N       -0.08120000      -0.21740000      -3.55580000
H        0.86980000       1.97450000       0.53870000
H       -0.06220000       1.95000000      -0.96820000
H       -0.89150000       1.92560000       0.59790000
H       -0.12690000      -4.07830000       0.72070000
H       -0.09480000      -3.35460000       2.23900000
H        0.10230000      -0.51170000       2.22350000
