20
Properties=species:S:1:pos:R:3 gdb_103873=T pbc="F F F"
C        0.06150000       1.62210000      -0.15310000
C       -0.10770000       0.13460000       0.08520000
C       -1.37010000      -0.46330000      -0.51650000
O       -1.34490000      -0.51660000      -1.93600000
N        1.12620000      -0.66710000       0.00340000
C        0.43590000      -0.55260000       1.29300000
C        1.17850000       0.15280000       2.42070000
C        1.97160000      -0.77550000       3.22050000
C        2.60540000      -1.56100000       3.87270000
H        1.01300000       1.98600000       0.23660000
H        0.05690000       1.84100000      -1.22750000
H       -0.75020000       2.19270000       0.31260000
H       -1.47710000      -1.50320000      -0.18980000
H       -2.25310000       0.08750000      -0.15420000
H       -1.38340000       0.38360000      -2.27300000
H        0.94450000      -1.56410000      -0.44050000
H       -0.12770000      -1.41920000       1.63700000
H        1.83240000       0.92270000       2.00000000
H        0.45540000       0.66580000       3.06900000
H        3.17730000      -2.24540000       4.44850000
