7
Properties=species:S:1:pos:R:3 gdb_491=T pbc="F F F"
O       -0.07200000      -0.03790000       0.00290000
C       -0.02150000       1.16700000       0.00780000
C        1.22330000       1.91010000       0.00020000
C        2.25220000       2.54680000      -0.00600000
C        3.41320000       3.26400000      -0.01300000
N        4.39950000       3.87720000      -0.01880000
H       -0.92800000       1.80120000       0.01870000
