16
Properties=species:S:1:pos:R:3 gdb_56623=T pbc="F F F"
C        0.20360000       1.14070000      -0.34300000
C       -0.14510000      -0.25730000       0.19570000
C        0.44150000      -0.48490000       1.52330000
N        0.93160000      -0.64380000       2.55730000
N       -1.59460000      -0.50740000       0.20920000
C       -2.16620000      -1.15050000      -0.88900000
N       -1.45360000      -1.52150000      -1.87210000
C       -2.40780000      -0.05700000       1.24370000
O       -3.60750000      -0.17860000       1.26800000
H        1.28810000       1.27000000      -0.38030000
H       -0.19900000       1.23980000      -1.35310000
H       -0.21860000       1.92340000       0.29240000
H        0.26570000      -1.00720000      -0.48740000
H       -3.24290000      -1.26740000      -0.76510000
H       -2.02530000      -1.98360000      -2.57570000
H       -1.82670000       0.42050000       2.05040000
