13
Properties=species:S:1:pos:R:3 gdb_132680=T pbc="F F F"
O        0.04690000       1.36260000      -0.13820000
C        0.05370000       0.00640000      -0.03550000
C       -0.00610000      -0.73780000      -1.21340000
N       -0.00420000      -2.07580000      -1.20680000
C        0.05550000      -2.68480000      -0.05950000
F        0.05720000      -4.03320000      -0.04650000
C        0.11880000      -2.05220000       1.18710000
O        0.17900000      -2.75130000       2.34500000
C        0.11730000      -0.66510000       1.18890000
H        0.09190000       1.75320000       0.74050000
H       -0.05600000      -0.23570000      -2.17330000
H        0.16840000      -3.69010000       2.11920000
H        0.16530000      -0.13240000       2.13340000
