15
Properties=species:S:1:pos:R:3 gdb_37515=T pbc="F F F"
O       -0.05900000       1.47160000      -0.03380000
C        1.38280000       1.39280000       0.01080000
C        1.34550000       0.04250000       0.79330000
C       -0.00930000       0.02860000       0.01780000
C        0.66540000      -0.42810000      -1.29510000
O        1.38420000      -1.59260000      -0.89400000
C        2.28090000      -0.91630000      -0.02090000
O        2.97070000      -0.03790000      -0.90200000
C        1.81910000       0.70230000      -1.30090000
H        1.88900000       2.29970000       0.33440000
H        1.35710000       0.03620000       1.87850000
H       -0.92460000      -0.45740000       0.34860000
H        0.07420000      -0.60070000      -2.18930000
H        2.95710000      -1.60380000       0.47950000
H        1.99900000       1.28540000      -2.19900000
