19
Properties=species:S:1:pos:R:3 gdb_91304=T pbc="F F F"
C        0.02860000       1.54040000       0.09180000
N        0.06540000       0.10000000       0.18200000
C       -1.18980000      -0.66560000       0.31840000
C       -0.46930000      -1.62280000       1.28810000
C        0.54340000      -2.60600000       0.62990000
C        1.72270000      -1.63030000       0.98120000
C        2.69250000      -1.30080000      -0.04830000
N        3.46600000      -1.03410000      -0.86530000
C        0.66140000      -0.55060000       1.35690000
H        1.04900000       1.93500000       0.06340000
H       -0.46740000       1.83650000      -0.83840000
H       -0.50820000       2.02030000       0.93200000
H       -1.99140000      -0.10020000       0.82170000
H       -1.58310000      -1.07890000      -0.61840000
H       -1.01050000      -1.98550000       2.15930000
H        0.62760000      -3.58770000       1.09850000
H        0.39240000      -2.73670000      -0.44280000
H        2.25190000      -1.97390000       1.87570000
H        0.86590000       0.09360000       2.21840000
