15
Properties=species:S:1:pos:R:3 gdb_52387=T pbc="F F F"
O        0.38490000       0.40710000      -1.15670000
C        0.35990000       1.55640000      -0.80670000
C        1.48340000       2.19960000       0.00160000
O        1.36940000       3.61130000       0.05630000
C        2.26460000       4.33460000      -0.73620000
C        2.02130000       4.21150000      -2.23150000
O        1.21960000       3.46200000      -2.73590000
C        2.87790000       5.10400000      -3.13890000
O        3.69960000       5.87180000      -2.71210000
H       -0.49770000       2.23290000      -1.00090000
H        1.40290000       1.82460000       1.03130000
H        2.45190000       1.86690000      -0.39240000
H        2.17450000       5.39080000      -0.45780000
H        3.31660000       4.06140000      -0.54340000
H        2.65950000       4.96700000      -4.21830000
