20
Properties=species:S:1:pos:R:3 gdb_64449=T pbc="F F F"
C        0.18640000       1.50240000      -0.06640000
C       -0.01480000      -0.02060000      -0.02490000
C       -1.52450000      -0.34470000       0.09610000
N        0.59920000      -0.59760000      -1.23140000
C        0.86470000      -2.02220000      -1.12280000
C        1.91410000      -2.18580000      -0.04360000
O        1.48880000      -1.61430000       1.20450000
C        0.65540000      -0.55230000       1.25970000
O        0.40850000      -0.06720000       2.33180000
H        1.24750000       1.74500000      -0.16340000
H       -0.33810000       1.92000000      -0.93280000
H       -0.20510000       1.96420000       0.84120000
H       -2.06170000       0.10120000      -0.74820000
H       -1.71070000      -1.42310000       0.09000000
H       -1.93090000       0.06310000       1.02390000
H        0.01430000      -0.39170000      -2.03440000
H       -0.01940000      -2.63720000      -0.87720000
H        1.26680000      -2.38970000      -2.07240000
H        2.12110000      -3.23730000       0.17140000
H        2.84340000      -1.69220000      -0.34820000
