18
Properties=species:S:1:pos:R:3 gdb_78141=T pbc="F F F"
C       -0.14130000       1.36010000      -0.02280000
N        0.05270000      -0.08590000       0.06140000
C        1.45840000      -0.51600000      -0.13020000
C        0.85140000      -0.54700000       1.22020000
C        0.59060000      -1.99250000       1.54650000
C       -0.05810000      -2.40530000       2.82440000
C        0.97130000      -2.77220000       0.51870000
C        1.57080000      -1.96840000      -0.57670000
O        2.07270000      -2.36620000      -1.60200000
H        0.70200000       1.94910000       0.37320000
H       -0.29060000       1.63460000      -1.07140000
H       -1.04460000       1.62900000       0.53360000
H        2.19410000       0.21560000      -0.44570000
H        1.10470000       0.17060000       1.99450000
H       -1.05150000      -1.94780000       2.91340000
H       -0.16820000      -3.48980000       2.89390000
H        0.52300000      -2.05940000       3.68830000
H        0.85290000      -3.84620000       0.44860000
