15
Properties=species:S:1:pos:R:3 gdb_18945=T pbc="F F F"
N       -0.08710000      -1.22340000      -0.10160000
C       -0.07440000      -0.06730000      -0.06930000
C       -0.05050000       1.38700000      -0.02110000
C        0.01310000       2.07050000       1.36970000
C        1.54620000       1.78680000       1.53610000
C        1.85170000       3.26330000       1.85800000
C        0.74600000       3.32590000       0.78550000
C        1.32970000       2.09380000       0.01380000
H       -0.78060000       1.80220000      -0.72290000
H       -0.74300000       2.05800000       2.15440000
H        1.98680000       0.87970000       1.94830000
H        1.58550000       3.61400000       2.85960000
H        2.83880000       3.63620000       1.56880000
H        0.26330000       4.19250000       0.33170000
H        2.09180000       2.10820000      -0.76520000
