11
Properties=species:S:1:pos:R:3 gdb_42353=T pbc="F F F"
O       -0.06280000      -0.13380000       0.00130000
C       -0.04760000       1.07010000       0.00530000
C        1.23110000       1.91520000      -0.00080000
C        2.44790000       1.11340000      -0.01360000
N        3.42560000       0.50060000      -0.02370000
C       -1.27370000       1.85190000       0.01680000
C       -2.30170000       2.48910000       0.02640000
C       -3.46020000       3.21110000       0.03720000
N       -4.44260000       3.83020000       0.04640000
H        1.20730000       2.58000000      -0.87360000
H        1.22050000       2.57210000       0.87810000
