14
Properties=species:S:1:pos:R:3 gdb_125349=T pbc="F F F"
C       -0.01560000       1.50950000       0.09380000
C       -0.01040000       0.02590000      -0.00120000
C       -0.03910000      -0.85880000      -1.06060000
N       -0.01940000      -2.20050000      -0.67460000
C        0.02090000      -2.09470000       0.61580000
O        0.05970000      -2.92680000       1.69430000
C        0.08880000      -2.06680000       2.75530000
N        0.07280000      -0.80600000       2.46800000
N        0.02910000      -0.82540000       1.09330000
H        0.88170000       1.89080000       0.59480000
H       -0.05000000       1.93880000      -0.91010000
H       -0.88320000       1.88100000       0.65110000
H       -0.07380000      -0.59800000      -2.10790000
H        0.12250000      -2.49770000       3.74160000
