16
Properties=species:S:1:pos:R:3 gdb_3555=T pbc="F F F"
C       -0.04260000       1.52810000       0.02360000
N        0.09480000       0.07910000      -0.01630000
C        0.78650000      -0.54300000      -1.13850000
C        2.31210000      -0.59490000      -0.84010000
C        2.49260000       0.01930000       0.54560000
C        1.09190000      -0.59290000       0.86690000
C        1.34820000      -1.63360000      -0.29190000
H        0.88080000       2.08920000      -0.18890000
H       -0.79440000       1.83060000      -0.71350000
H       -0.40800000       1.82600000       1.01240000
H        0.38230000      -0.57630000      -2.14320000
H        3.04690000      -0.72020000      -1.62540000
H        3.26980000      -0.50630000       1.10670000
H        2.63190000       1.10010000       0.65530000
H        0.78020000      -0.79320000       1.89120000
H        1.29670000      -2.71020000      -0.35390000
