20
Properties=species:S:1:pos:R:3 gdb_8941=T pbc="F F F"
C       -0.00460000       1.40470000      -0.07040000
O       -0.03310000       0.00820000       0.11740000
C       -1.31920000      -0.58420000       0.01310000
C       -1.75890000      -0.72510000      -1.44690000
C       -1.23640000      -1.94960000       0.72890000
C       -0.73500000      -1.80560000       2.17720000
C       -2.60100000      -2.60880000       0.75690000
O       -2.86550000      -3.69200000       0.30380000
H        1.01830000       1.73300000       0.12970000
H       -0.26930000       1.70070000      -1.09550000
H       -0.68510000       1.92120000       0.62450000
H       -2.04830000       0.04720000       0.55290000
H       -1.04550000      -1.34620000      -1.99680000
H       -2.74550000      -1.19390000      -1.51660000
H       -1.82090000       0.24880000      -1.93990000
H       -0.56470000      -2.60330000       0.16270000
H        0.21960000      -1.27830000       2.18340000
H       -1.44430000      -1.23220000       2.78590000
H       -0.60450000      -2.78590000       2.64420000
H       -3.38230000      -2.00190000       1.27760000
