21
Properties=species:S:1:pos:R:3 gdb_92368=T pbc="F F F"
C       -0.18880000       1.57530000      -0.04480000
C        0.03740000       0.06470000      -0.00880000
C        0.79600000      -0.52450000      -1.24000000
C        1.89260000      -1.32990000      -0.52300000
O        2.88880000      -0.42040000      -0.05060000
C        2.30890000       0.14990000       1.13120000
C        0.90630000      -0.49610000       1.16010000
C        0.24280000      -0.60060000       2.51170000
O        1.25220000      -1.80340000       0.64250000
H        0.74090000       2.12570000      -0.22040000
H       -0.87810000       1.83830000      -0.85350000
H       -0.62830000       1.94150000       0.88970000
H       -0.93630000      -0.42890000       0.07800000
H        0.15670000      -1.16950000      -1.84860000
H        1.23180000       0.24290000      -1.88420000
H        2.37080000      -2.14200000      -1.07040000
H        2.89590000      -0.14060000       2.01140000
H        2.29470000       1.24160000       1.05910000
H        0.00540000       0.39400000       2.90210000
H       -0.68800000      -1.17050000       2.43950000
H        0.90030000      -1.10180000       3.22760000
