19
Properties=species:S:1:pos:R:3 gdb_52584=T pbc="F F F"
C       -0.00200000       1.50200000       0.09820000
C       -0.01880000       0.04950000       0.01530000
C       -0.03110000      -1.15100000      -0.05450000
C       -0.04910000      -2.61480000      -0.10790000
C       -1.45890000      -3.11110000      -0.04140000
N       -2.52720000      -3.55260000      -0.04020000
N        0.68350000      -3.14940000      -1.25430000
C        0.88650000      -4.58980000      -1.15540000
C        0.12800000      -2.75320000      -2.54420000
H        0.86240000       1.91610000      -0.43170000
H       -0.90590000       1.93390000      -0.34390000
H        0.05400000       1.83560000       1.13980000
H        0.44970000      -3.00130000       0.79150000
H       -0.04950000      -5.17100000      -1.21940000
H        1.54330000      -4.91100000      -1.96840000
H        1.37800000      -4.83110000      -0.20730000
H        0.03290000      -1.66570000      -2.58220000
H        0.81540000      -3.06770000      -3.33440000
H       -0.86040000      -3.20000000      -2.74630000
