20
Properties=species:S:1:pos:R:3 gdb_58827=T pbc="F F F"
C        0.03610000       1.53450000       0.15330000
C       -0.01820000       0.01520000      -0.02780000
O        0.78050000      -0.65350000       0.94330000
C       -1.43760000      -0.50300000      -0.03650000
C       -2.20120000      -0.95390000       1.18120000
C       -1.93870000      -1.93440000       0.06200000
C       -2.85410000      -1.68310000      -1.17030000
N       -3.78830000      -0.56830000      -0.86180000
C       -2.38520000      -0.28900000      -1.26400000
H        1.07200000       1.88440000       0.13140000
H       -0.52170000       2.04840000      -0.63620000
H       -0.41210000       1.82170000       1.11230000
H        0.44960000      -0.24190000      -0.98830000
H        0.53970000      -0.30080000       1.80690000
H       -1.58600000      -1.13370000       2.05730000
H       -3.20210000      -0.59260000       1.37830000
H       -1.35020000      -2.83150000       0.20060000
H       -3.07730000      -2.40060000      -1.94890000
H       -4.36530000      -0.42880000      -1.69110000
H       -2.15870000       0.32190000      -2.12900000
