17
Properties=species:S:1:pos:R:3 gdb_18563=T pbc="F F F"
O       -0.04130000      -0.00460000       0.05470000
C       -0.02180000       1.19700000       0.02190000
N       -1.01440000       2.14810000      -0.00160000
C       -0.11940000       3.31390000       0.04320000
C       -0.03990000       4.04350000       1.39040000
C        0.75810000       3.09140000       2.30490000
C        1.80720000       2.45960000       1.36580000
C        1.07410000       2.29500000       0.02610000
H       -2.01550000       2.06430000       0.10570000
H       -0.23270000       3.97790000      -0.81760000
H        0.51330000       4.97960000       1.24580000
H       -1.02470000       4.30730000       1.78850000
H        1.20780000       3.60460000       3.15860000
H        0.09870000       2.31490000       2.70690000
H        2.65680000       3.13980000       1.23540000
H        2.20040000       1.50990000       1.73890000
H        1.72010000       2.28570000      -0.85220000
