14
Properties=species:S:1:pos:R:3 gdb_97526=T pbc="F F F"
O       -0.07830000       1.49560000       0.01110000
C       -0.05710000       0.07970000       0.00310000
C       -1.41850000      -0.43510000       0.01340000
C       -2.53340000      -0.89100000       0.02160000
C       -3.82990000      -1.50800000       0.03070000
O       -4.02920000      -2.69460000       0.02630000
O       -4.80920000      -0.55030000       0.04530000
C       -6.11830000      -0.97470000       0.05560000
N       -7.01580000      -0.09500000       0.06870000
H        0.83500000       1.80020000       0.00700000
H        0.45370000      -0.31970000      -0.88870000
H        0.47080000      -0.32960000       0.88020000
H       -6.21430000      -2.06000000       0.05080000
H       -7.93300000      -0.53930000       0.07520000
