21
Properties=species:S:1:pos:R:3 gdb_69534=T pbc="F F F"
C        0.02000000       1.45510000       0.00890000
C       -0.00190000      -0.05300000      -0.00980000
C       -0.86920000      -0.82680000       0.95760000
C        0.63410000      -0.94220000       1.04300000
C        1.37900000      -1.94440000       0.14420000
O        2.09130000      -2.90300000       0.85920000
C        0.36650000      -2.28590000      -0.98530000
C        0.51820000      -0.76980000      -1.28350000
C        2.02620000      -0.95620000      -0.90090000
H        0.97370000       1.84750000      -0.36310000
H       -0.77520000       1.87160000      -0.62160000
H       -0.12620000       1.84280000       1.02220000
H       -1.32670000      -0.22460000       1.73760000
H       -1.48910000      -1.66070000       0.65210000
H        1.16790000      -0.55270000       1.90300000
H        2.54560000      -3.47270000       0.23030000
H        0.83610000      -2.88890000      -1.76750000
H       -0.60900000      -2.70640000      -0.74190000
H        0.22220000      -0.35490000      -2.24670000
H        2.56890000      -0.09090000      -0.51140000
H        2.61280000      -1.46300000      -1.67420000
