12
Properties=species:S:1:pos:R:3 gdb_4404=T pbc="F F F"
N        0.05300000       1.34300000       0.06610000
C       -0.05570000       0.00050000       0.02260000
C       -1.24060000      -0.71220000       0.01460000
C       -1.10990000      -2.10400000      -0.00950000
N        0.01940000      -2.78250000      -0.02430000
C        1.19270000      -2.11090000      -0.01630000
O        2.31160000      -2.51790000      -0.02570000
O        1.10600000      -0.62180000       0.00500000
H        0.96430000       1.75780000      -0.03370000
H       -0.76040000       1.92370000      -0.03300000
H       -2.20150000      -0.21900000       0.02900000
H       -2.01580000      -2.71010000      -0.01790000
