20
Properties=species:S:1:pos:R:3 gdb_100597=T pbc="F F F"
C       -0.24860000       1.72820000      -0.46650000
C       -0.01030000       0.26620000      -0.08030000
N       -1.24600000      -0.49050000       0.12210000
C       -1.97280000      -0.97320000      -1.04060000
C       -1.73510000      -0.57960000       1.40150000
O       -1.17130000      -0.10240000       2.37330000
N       -2.94110000      -1.27070000       1.52560000
C       -3.57060000      -1.45120000       2.74250000
N       -4.66610000      -2.09450000       2.80500000
H        0.70670000       2.24010000      -0.62040000
H       -0.82760000       1.81330000      -1.39230000
H       -0.79100000       2.24600000       0.32930000
H        0.57480000      -0.24510000      -0.85340000
H        0.54850000       0.21470000       0.85440000
H       -2.13670000      -2.05780000      -1.00060000
H       -2.94320000      -0.47640000      -1.17070000
H       -1.37870000      -0.76990000      -1.93270000
H       -3.40840000      -1.67870000       0.73150000
H       -3.01730000      -0.98930000       3.56170000
H       -4.99380000      -2.13350000       3.76800000
