22
Properties=species:S:1:pos:R:3 gdb_59554=T pbc="F F F"
C       -0.14540000       1.54640000       0.00730000
C       -0.00220000       0.02660000      -0.08360000
O        0.81440000      -0.35620000      -1.19040000
C        0.67200000      -0.56610000       1.14550000
C       -0.05250000      -0.60620000       2.51640000
N        0.19140000      -2.08430000       2.67480000
C       -0.52690000      -2.70250000       1.54170000
C        0.78870000      -2.08930000       1.26640000
C        2.00950000      -2.87240000       0.88790000
H        0.83790000       2.01680000       0.10860000
H       -0.62520000       1.94780000      -0.89300000
H       -0.76130000       1.83570000       0.86530000
H       -1.00580000      -0.41720000      -0.19070000
H        0.42060000       0.00290000      -1.99190000
H        1.66120000      -0.10640000       1.24420000
H        0.45160000      -0.04800000       3.30730000
H       -1.11660000      -0.34030000       2.51930000
H       -0.56100000      -3.78640000       1.60370000
H       -1.45220000      -2.24710000       1.19350000
H        2.10420000      -2.90960000      -0.20260000
H        2.91660000      -2.40640000       1.28830000
H        1.95590000      -3.89610000       1.26980000
