15
Properties=species:S:1:pos:R:3 gdb_54652=T pbc="F F F"
N        0.00450000       1.35560000      -0.06260000
C        0.06420000      -0.01640000      -0.03320000
O        1.12680000      -0.61760000      -0.06100000
C       -1.23710000      -0.70650000      -0.00150000
C       -1.34200000      -2.04810000       0.01870000
N       -2.66580000      -2.45960000       0.03590000
C       -3.54190000      -1.37650000       0.02470000
O       -4.74500000      -1.44100000       0.03620000
C       -2.63500000      -0.13130000      -0.00250000
H        0.87790000       1.84580000       0.04450000
H       -0.83930000       1.85040000       0.17050000
H       -0.53340000      -2.76410000       0.01930000
H       -2.98600000      -3.41420000       0.05300000
H       -2.86780000       0.49080000       0.87020000
H       -2.87090000       0.46360000      -0.89240000
