17
Properties=species:S:1:pos:R:3 gdb_94264=T pbc="F F F"
C       -0.32410000       1.43710000       0.01930000
C        0.16880000       0.00620000      -0.04820000
O        1.38440000      -0.12950000      -0.79010000
C        2.07760000      -0.76500000       0.30770000
C        0.86320000      -0.65040000       1.23620000
C        0.97740000       0.29340000       2.40740000
O        1.92250000       1.00960000       2.61570000
C        0.17270000      -1.93590000       1.62680000
O        0.49000000      -3.02820000       1.23470000
H        0.42850000       2.09780000       0.45660000
H       -0.53360000       1.78190000      -0.99810000
H       -1.24960000       1.50890000       0.60050000
H       -0.61500000      -0.65190000      -0.44880000
H        2.35670000      -1.79690000       0.07810000
H        2.94440000      -0.18470000       0.63440000
H        0.09160000       0.30510000       3.08240000
H       -0.70500000      -1.80050000       2.29990000
