20
Properties=species:S:1:pos:R:3 gdb_57050=T pbc="F F F"
C       -0.13270000       1.50110000       0.01490000
C        0.06750000      -0.02390000      -0.07670000
C        0.86870000      -0.36780000      -1.25720000
N        1.52000000      -0.62710000      -2.17650000
C        0.72240000      -0.59810000       1.18740000
C       -0.02300000      -0.47250000       2.54680000
C        0.46460000      -1.90690000       2.89070000
C        0.73780000      -2.14010000       1.37800000
O       -0.37340000      -2.69020000       0.69250000
H        0.82570000       2.01590000       0.12900000
H       -0.62160000       1.88670000      -0.88300000
H       -0.75850000       1.74100000       0.87880000
H       -0.90520000      -0.51200000      -0.19950000
H        1.74240000      -0.21140000       1.27860000
H        0.27620000       0.33960000       3.21200000
H       -1.10720000      -0.43790000       2.41050000
H        1.38810000      -1.90240000       3.47650000
H       -0.25210000      -2.58620000       3.35840000
H        1.66420000      -2.66060000       1.10690000
H       -0.41960000      -3.62930000       0.89620000
