19
Properties=species:S:1:pos:R:3 gdb_55650=T pbc="F F F"
C       -0.79560000       0.64530000      -3.21710000
C       -1.16070000      -0.43900000      -2.23510000
O       -2.23780000      -1.00540000      -2.27620000
C       -0.12680000      -0.79340000      -1.17130000
C       -0.09470000      -2.29840000      -0.84810000
C        0.93070000      -2.62680000       0.23870000
O       -1.34970000      -2.77390000      -0.38800000
C        0.25370000      -3.09590000      -2.11140000
O        0.56260000      -2.61350000      -3.17220000
H       -0.41100000       1.52930000      -2.69690000
H        0.01160000       0.26740000      -3.85490000
H       -1.65730000       0.91040000      -3.83040000
H        0.86290000      -0.44750000      -1.47930000
H       -0.39830000      -0.24930000      -0.25750000
H        0.64130000      -2.13240000       1.17020000
H        0.94900000      -3.70510000       0.42220000
H        1.93500000      -2.29910000      -0.04520000
H       -2.01420000      -2.37810000      -0.97940000
H        0.16190000      -4.19510000      -1.96960000
