20
Properties=species:S:1:pos:R:3 gdb_6907=T pbc="F F F"
C        0.04870000       1.53570000      -0.14350000
C        0.00130000       0.02590000       0.00560000
C       -1.21320000      -0.60710000      -0.64980000
C        1.30090000      -0.75010000      -0.03120000
C        0.52430000      -0.64500000       1.25990000
C        1.07870000       0.12380000       2.45340000
C        1.93690000      -0.70230000       3.29850000
C        2.63300000      -1.40060000       3.98600000
H        0.95340000       1.97360000       0.28590000
H        0.02630000       1.81390000      -1.20370000
H       -0.81500000       2.01070000       0.33730000
H       -1.23460000      -0.39420000      -1.72530000
H       -1.21480000      -1.69450000      -0.52580000
H       -2.14390000      -0.22010000      -0.21760000
H        1.32770000      -1.70480000      -0.54620000
H        2.22470000      -0.18380000      -0.10400000
H       -0.01240000      -1.54210000       1.55730000
H        1.64690000       0.99730000       2.11430000
H        0.25140000       0.51870000       3.05890000
H        3.25300000      -2.00950000       4.59570000
