21
Properties=species:S:1:pos:R:3 gdb_5880=T pbc="F F F"
C        0.04700000       1.39080000      -0.04560000
N        0.06160000      -0.05530000      -0.09130000
C       -1.05050000      -0.64390000      -0.02500000
O       -1.11230000      -1.98610000      -0.06160000
C       -2.40480000      -2.64890000       0.01530000
C       -3.27910000      -2.25540000      -1.18270000
C       -2.03780000      -4.13250000      -0.05720000
C       -3.08910000      -2.33220000       1.35160000
H        0.64740000       1.74080000       0.80250000
H        0.51440000       1.79490000      -0.95130000
H       -0.96170000       1.82910000       0.04450000
H       -2.01420000      -0.12310000       0.06420000
H       -2.74580000      -2.44350000      -2.11870000
H       -4.19940000      -2.84720000      -1.18490000
H       -3.56540000      -1.20030000      -1.15530000
H       -1.38130000      -4.40220000       0.77420000
H       -2.93740000      -4.75280000      -0.00890000
H       -1.51290000      -4.34850000      -0.99130000
H       -3.37250000      -1.27890000       1.43050000
H       -4.00100000      -2.92810000       1.45560000
H       -2.42280000      -2.57310000       2.18470000
