19
Properties=species:S:1:pos:R:3 gdb_123730=T pbc="F F F"
C       -0.10090000       1.55690000      -0.01480000
C        1.44920000       1.54320000      -0.06700000
C        1.42290000       0.10960000       0.55370000
C       -0.06770000       0.01010000       0.09600000
C        2.41000000      -0.91450000       0.10900000
C        3.25890000      -1.67130000       0.89460000
N        3.97020000      -2.46400000       0.05600000
N        3.64980000      -2.28430000      -1.23860000
C        2.70640000      -1.34790000      -1.20930000
H       -0.47090000       2.02070000       0.90440000
H       -0.63430000       1.99470000      -0.86140000
H        1.81770000       1.51560000      -1.09680000
H        1.99600000       2.31780000       0.47660000
H        1.45620000       0.19270000       1.64520000
H       -0.77160000      -0.47920000       0.77400000
H       -0.14320000      -0.46610000      -0.88610000
H        3.40260000      -1.70000000       1.96370000
H        4.67730000      -3.13820000       0.29390000
H        2.26690000      -1.01160000      -2.13760000
