18
Properties=species:S:1:pos:R:3 gdb_83164=T pbc="F F F"
C        0.26540000       1.63190000       0.03610000
C        0.09350000       0.13080000      -0.03440000
C        0.56240000      -0.69330000      -1.22650000
C        1.33390000      -0.07920000      -2.37410000
N        2.66310000       0.34660000      -1.96390000
C        3.29410000       0.19310000      -0.76110000
O        4.44150000       0.51380000      -0.57280000
O        2.56090000      -0.31230000       0.26770000
C        1.25790000      -0.81560000       0.09620000
H        1.19290000       1.96690000      -0.43290000
H       -0.56520000       2.13960000      -0.46540000
H        0.28290000       1.96780000       1.07760000
H       -0.82410000      -0.23170000       0.42210000
H       -0.06930000      -1.52410000      -1.52150000
H        1.42350000      -0.82810000      -3.17210000
H        0.79090000       0.77580000      -2.80070000
H        3.28100000       0.71060000      -2.67130000
H        1.14320000      -1.71970000       0.68380000
