16
Properties=species:S:1:pos:R:3 gdb_75458=T pbc="F F F"
N       -0.09440000       1.33290000       0.14670000
C       -0.11680000      -0.02440000       0.01970000
N       -1.15120000      -0.76490000      -0.05940000
C       -0.72730000      -2.16680000      -0.09000000
C        0.78420000      -2.16290000      -0.43020000
C        1.23480000      -0.76200000       0.03940000
O        2.13080000      -0.07520000      -0.82280000
C        1.78830000      -0.79090000       1.40860000
N        2.25870000      -0.83590000       2.46380000
H        0.73530000       1.78940000      -0.20070000
H       -0.96530000       1.80590000      -0.04130000
H       -0.91660000      -2.63440000       0.88500000
H       -1.31360000      -2.72290000      -0.82780000
H        1.34680000      -2.97810000       0.02800000
H        0.93550000      -2.19170000      -1.51310000
H        3.01860000      -0.42800000      -0.69610000
