18
Properties=species:S:1:pos:R:3 gdb_102952=T pbc="F F F"
O        0.05220000       1.45990000      -0.13780000
C        0.02160000       0.05390000      -0.15730000
C       -1.40920000      -0.51710000       0.01120000
C       -1.43140000      -2.05690000      -0.08260000
C       -2.84630000      -2.65490000      -0.01870000
C       -2.80870000      -4.16790000      -0.00280000
O       -3.36640000      -4.87800000      -0.79720000
C       -1.96040000      -0.04940000       1.28650000
N       -2.35180000       0.33240000       2.30560000
H       -0.17160000       1.75710000       0.75160000
H        0.39660000      -0.25150000      -1.13890000
H        0.67840000      -0.38810000       0.60680000
H       -2.02850000      -0.09150000      -0.78790000
H       -0.95400000      -2.34010000      -1.02740000
H       -0.81440000      -2.47310000       0.72290000
H       -3.33450000      -2.32540000       0.90950000
H       -3.45980000      -2.32950000      -0.86370000
H       -2.20120000      -4.60050000       0.82710000
