12
Properties=species:S:1:pos:R:3 gdb_27985=T pbc="F F F"
O        0.04320000       1.33710000       0.00810000
C       -0.06340000       0.00980000       0.00110000
C       -1.12810000      -0.79370000       0.00260000
N       -0.61120000      -2.11970000      -0.00790000
C       -1.38790000      -3.28060000      -0.01030000
O       -0.96450000      -4.40150000      -0.01910000
C        0.78910000      -2.07000000      -0.01530000
O        1.60550000      -2.93330000      -0.02510000
O        1.10490000      -0.70720000      -0.00960000
H        0.97970000       1.57060000       0.00310000
H       -2.18060000      -0.58040000       0.00970000
H       -2.46340000      -3.02080000      -0.00290000
