14
Properties=species:S:1:pos:R:3 gdb_12625=T pbc="F F F"
O        0.11830000       1.44690000       0.25940000
C        0.12050000       0.05590000       0.01120000
C        0.72610000      -0.67810000       1.19850000
C       -0.18400000      -1.30780000       1.95400000
C       -1.52640000      -1.06690000       1.39160000
O       -2.61520000      -1.17540000       1.91010000
C       -1.32150000      -0.51150000      -0.02360000
O       -2.28020000       0.46670000      -0.34460000
H       -0.78150000       1.73920000       0.04590000
H        0.67110000      -0.15920000      -0.91530000
H        1.78940000      -0.62840000       1.40550000
H       -0.01330000      -1.84010000       2.88080000
H       -1.36980000      -1.35380000      -0.73040000
H       -3.01480000       0.32910000       0.27340000
