16
Properties=species:S:1:pos:R:3 gdb_34102=T pbc="F F F"
N        0.11920000      -1.11190000       0.02790000
C        0.03780000       0.04030000       0.00910000
C       -0.10450000       1.48710000      -0.01550000
C       -1.02270000       2.11300000       1.03870000
C       -1.05300000       3.60760000       0.61130000
C       -0.54480000       3.60280000      -0.83190000
C        0.80980000       2.96920000      -1.07320000
O        1.19040000       2.17470000       0.05830000
C       -0.42900000       2.18740000      -1.36370000
H       -2.01510000       1.65350000       0.98680000
H       -0.62290000       1.96010000       2.04380000
H       -2.06460000       4.01720000       0.66840000
H       -0.41250000       4.21560000       1.25540000
H       -0.84370000       4.38440000      -1.52160000
H        1.59880000       3.36340000      -1.70090000
H       -0.85090000       1.75340000      -2.25800000
