19
Properties=species:S:1:pos:R:3 gdb_91376=T pbc="F F F"
O       -0.25960000       1.42700000      -0.10900000
C       -0.01590000       0.05020000      -0.00160000
C        0.26210000      -0.60270000       1.41740000
C       -0.68770000      -1.77970000       1.00510000
C       -1.95250000      -2.23720000       1.75900000
C       -3.12700000      -1.93480000       0.76520000
O       -4.33640000      -1.56710000       1.40940000
C       -2.55350000      -0.83380000      -0.12940000
C       -1.22960000      -0.83380000      -0.03460000
H        0.58360000       1.87930000      -0.20770000
H        0.75490000      -0.28140000      -0.71390000
H        1.30040000      -0.83810000       1.66600000
H       -0.18100000       0.02270000       2.19650000
H       -0.11480000      -2.62130000       0.60090000
H       -1.93290000      -3.28170000       2.08190000
H       -2.10980000      -1.62000000       2.65230000
H       -3.39650000      -2.83180000       0.19280000
H       -4.17380000      -0.73560000       1.87000000
H       -3.19000000      -0.13630000      -0.66010000
