17
Properties=species:S:1:pos:R:3 gdb_28318=T pbc="F F F"
N        0.03670000       1.45060000       0.04790000
C       -0.04670000       0.05170000      -0.03650000
C       -1.17530000      -0.75150000      -0.01260000
N       -0.72620000      -2.05760000       0.00180000
C       -0.90500000      -3.33120000      -0.74500000
C        0.65360000      -3.49510000      -0.72560000
C        0.65010000      -2.08670000      -0.15180000
C        1.10530000      -0.79340000      -0.18890000
O        2.36370000      -0.25860000      -0.29310000
H        0.96120000       1.74790000       0.33430000
H       -0.65730000       1.85700000       0.66100000
H       -2.20890000      -0.48540000       0.14550000
H       -1.50480000      -4.07530000      -0.21400000
H       -1.30230000      -3.18370000      -1.75370000
H        1.02880000      -4.28840000      -0.07230000
H        1.10400000      -3.60690000      -1.71500000
H        3.00840000      -0.96880000      -0.23030000
