24
Properties=species:S:1:pos:R:3 gdb_6837=T pbc="F F F"
C        0.06880000       1.61770000       0.05060000
C       -0.09590000       0.09520000      -0.02690000
C        0.67080000      -0.52020000      -1.19180000
C        2.22360000      -0.53790000      -1.16970000
C        2.18240000      -1.92640000      -1.85830000
C        0.68750000      -2.07610000      -1.42860000
C        0.55620000      -2.89630000      -0.14120000
C       -0.27700000      -2.59500000      -2.49130000
H        1.12120000       1.89670000       0.17040000
H       -0.29850000       2.10220000      -0.86110000
H       -0.48450000       2.03690000       0.89690000
H        0.23860000      -0.35290000       0.91690000
H       -1.16250000      -0.15010000      -0.12090000
H        0.33570000      -0.04220000      -2.12220000
H        2.74830000       0.26750000      -1.68900000
H        2.61480000      -0.59660000      -0.14860000
H        2.28550000      -1.84690000      -2.94480000
H        2.87890000      -2.69020000      -1.50030000
H        1.25580000      -2.56540000       0.63310000
H       -0.45540000      -2.83430000       0.27500000
H        0.76700000      -3.95280000      -0.34350000
H       -0.08700000      -3.65090000      -2.71880000
H       -1.31850000      -2.51390000      -2.15690000
H       -0.18110000      -2.03010000      -3.42480000
