20
Properties=species:S:1:pos:R:3 gdb_64228=T pbc="F F F"
C       -0.16670000       1.56100000      -0.03860000
C       -0.01800000       0.04390000       0.01350000
C       -1.28850000      -0.66270000      -0.43880000
O        1.12170000      -0.37790000      -0.79230000
C        1.85410000      -0.82590000       0.36270000
C        0.65180000      -0.56470000       1.28880000
C        0.86600000       0.31540000       2.52570000
C        1.65460000      -0.37280000       3.54750000
N        2.28100000      -0.93560000       4.33880000
H        0.76560000       2.06770000       0.22400000
H       -0.43000000       1.86370000      -1.05660000
H       -0.95840000       1.91000000       0.63310000
H       -1.55470000      -0.35200000      -1.45400000
H       -1.14770000      -1.74700000      -0.43980000
H       -2.12670000      -0.42000000       0.22390000
H        2.18340000      -1.86590000       0.26910000
H        2.73180000      -0.19630000       0.56530000
H        0.15400000      -1.48790000       1.59390000
H        1.38260000       1.24430000       2.26250000
H       -0.09650000       0.60090000       2.96620000
