18
Properties=species:S:1:pos:R:3 gdb_19094=T pbc="F F F"
C       -0.01730000       1.53400000       0.09530000
C        1.52250000       1.47990000      -0.03190000
C        2.20650000       0.78240000       1.21200000
C        1.17690000       0.31640000       2.26680000
C        0.67570000      -0.70480000       1.21990000
C       -0.00840000      -0.00740000      -0.02400000
C        1.39440000       0.07650000      -0.72840000
C        2.06490000      -0.60710000       0.49080000
H       -0.46980000       2.00430000       0.97430000
H       -0.45490000       1.97960000      -0.80420000
H        2.06090000       2.32610000      -0.46010000
H        3.15750000       1.20790000       1.53410000
H        1.68480000      -0.20210000       3.08670000
H        0.47510000       1.04090000       2.69250000
H        0.22460000      -1.64150000       1.54930000
H       -0.87200000      -0.52330000      -0.44490000
H        1.57520000      -0.11520000      -1.78530000
H        2.82380000      -1.38840000       0.48520000
