18
Properties=species:S:1:pos:R:3 gdb_88320=T pbc="F F F"
C        0.47530000       1.45740000      -0.15440000
C        0.04750000       0.00960000      -0.20270000
C        0.81520000      -0.99380000      -1.01480000
N        0.82360000      -1.03260000       0.44170000
C        1.92910000      -0.79010000       1.25330000
O        1.95350000       0.03940000       2.13810000
N        2.97790000      -1.66390000       1.00000000
C        4.14460000      -1.68250000       1.74150000
N        5.05570000      -2.53020000       1.48300000
H        1.54610000       1.56760000      -0.34520000
H       -0.07110000       2.02710000      -0.91290000
H        0.26790000       1.89020000       0.82690000
H       -1.02570000      -0.15080000      -0.11290000
H        0.30700000      -1.81760000      -1.50900000
H        1.71330000      -0.63820000      -1.51620000
H        2.87970000      -2.37550000       0.29040000
H        4.14780000      -0.91200000       2.51500000
H        5.84110000      -2.40500000       2.11860000
