15
Properties=species:S:1:pos:R:3 gdb_24290=T pbc="F F F"
C       -0.04420000       1.53740000      -0.00890000
C        1.44560000       1.91510000      -0.03050000
O        2.17240000       1.50270000       1.12530000
C        2.29220000       0.69810000      -0.07120000
C        1.36080000      -0.44930000      -0.05540000
C        1.29910000      -1.80160000      -0.05890000
O       -0.00540000      -2.19550000       0.01930000
C       -0.78020000      -1.06700000       0.07940000
C        0.00910000       0.03070000       0.02850000
H       -0.54460000       1.97980000       0.85900000
H       -0.54670000       1.91750000      -0.90620000
H        1.75670000       2.86390000      -0.46110000
H        3.28180000       0.66640000      -0.51490000
H        2.02290000      -2.59760000      -0.10960000
H       -1.84130000      -1.24170000       0.14200000
