18
Properties=species:S:1:pos:R:3 gdb_36095=T pbc="F F F"
C       -0.98020000      -0.07050000       1.22760000
C       -0.30570000       0.29790000       0.30340000
C        0.52050000       0.75640000      -0.80620000
C        1.72430000       1.56290000      -0.38140000
C        2.51470000       1.37190000       0.87750000
C        1.90100000       2.71880000       0.57340000
C        2.62310000       3.44990000      -0.57230000
C        3.76660000       2.72650000      -1.16180000
N        2.39790000       2.30760000      -1.53070000
H       -1.58600000      -0.40230000       2.03410000
H        0.86440000      -0.10540000      -1.39610000
H       -0.08010000       1.36800000      -1.49130000
H        1.96190000       0.81800000       1.62970000
H        3.58420000       1.19680000       0.91070000
H        1.17540000       3.19120000       1.22160000
H        2.36440000       4.46330000      -0.86290000
H        4.26970000       3.20830000      -1.99580000
H        4.41150000       2.08290000      -0.57540000
