15
Properties=species:S:1:pos:R:3 gdb_66040=T pbc="F F F"
N       -0.03710000       1.49760000      -0.05130000
C        0.02970000       0.05120000      -0.05240000
C        0.14660000      -0.52820000       1.39200000
N       -1.31820000      -0.72620000       1.41650000
C       -1.40310000      -0.60920000      -0.04960000
C       -2.50330000       0.20240000      -0.56810000
N       -3.36000000       0.83570000      -1.01510000
C        0.95710000      -0.51270000      -1.04120000
N        1.70200000      -0.92300000      -1.82500000
H        0.88090000       1.89420000       0.12580000
H       -0.35490000       1.84780000      -0.95080000
H        0.74380000      -1.44670000       1.42470000
H        0.51410000       0.18370000       2.13580000
H       -1.64420000      -1.60830000       1.79270000
H       -1.38670000      -1.56270000      -0.59320000
