19
Properties=species:S:1:pos:R:3 gdb_107253=T pbc="F F F"
C       -0.51650000       1.19490000      -0.00270000
C       -0.07280000       1.40950000       1.45180000
C        0.71790000       0.25720000       1.98640000
O        0.05040000      -0.97390000       2.27810000
C        0.83460000      -0.36620000       3.30590000
C        2.35020000      -0.70270000       3.03040000
O        2.42140000      -1.49880000       1.84600000
C        2.26100000      -0.08630000       1.70510000
C        3.22340000       0.68710000       0.86620000
H       -1.12680000       0.29140000      -0.08750000
H       -1.10810000       2.04370000      -0.35790000
H        0.34330000       1.08220000      -0.67100000
H        0.52810000       2.32420000       1.53210000
H       -0.95070000       1.55020000       2.09220000
H        0.36230000      -0.14070000       4.25460000
H        3.16160000      -0.76230000       3.74580000
H        3.01910000       0.54170000      -0.20050000
H        3.15480000       1.75910000       1.07860000
H        4.24710000       0.35810000       1.06430000
