16
Properties=species:S:1:pos:R:3 gdb_21206=T pbc="F F F"
C        0.09390000       1.41030000      -0.01180000
N       -0.17670000       0.00040000       0.19820000
C        0.56450000      -0.69550000       1.11990000
N        1.28660000      -0.10760000       2.06760000
N        1.76900000      -1.19720000       2.74250000
C        1.34160000      -2.34210000       2.17980000
C        1.69550000      -3.70070000       2.68200000
N        0.57140000      -2.06380000       1.14050000
H        1.11780000       1.61070000      -0.36090000
H       -0.61440000       1.80120000      -0.74600000
H       -0.04650000       1.95200000       0.92710000
H       -0.38020000      -0.54480000      -0.62500000
H        2.36890000      -1.06380000       3.53850000
H        0.80340000      -4.22440000       3.03910000
H        2.12920000      -4.30210000       1.87830000
H        2.41530000      -3.64720000       3.50310000
