16
Properties=species:S:1:pos:R:3 gdb_37839=T pbc="F F F"
C       -0.06160000       1.56010000       0.11780000
C        1.48210000       1.29380000       0.02390000
C        1.32880000      -0.00310000       0.83270000
O        2.32030000      -0.99460000       0.37280000
C        1.60600000      -1.10030000      -0.82570000
N        0.71290000      -2.01590000      -0.93480000
C       -0.57190000      -1.23070000      -0.85070000
C        0.04910000       0.05280000      -0.20660000
C        1.23420000       0.33260000      -1.17650000
H       -0.45570000       1.84730000       1.09790000
H       -0.48150000       2.18490000      -0.67370000
H        2.28120000       2.02590000       0.13380000
H        1.21700000      -0.04900000       1.91400000
H       -1.09080000      -0.98240000      -1.78810000
H       -1.25220000      -1.82250000      -0.23120000
H        1.02970000       0.65310000      -2.19440000
