25
Properties=species:S:1:pos:R:3 gdb_97894=T pbc="F F F"
C        0.48530000       1.08890000       0.49860000
C       -0.47160000       0.41330000      -0.50050000
C        0.22030000      -0.23470000      -1.61100000
C        0.81180000      -0.75300000      -2.52480000
C        1.52030000      -1.38920000      -3.63110000
C        1.94430000      -2.86690000      -3.37990000
C        0.69930000      -3.73110000      -3.12030000
C        2.66960000      -3.37070000      -4.63920000
C        2.89370000      -2.94020000      -2.17270000
H        1.17130000       0.35750000       0.93450000
H        1.08440000       1.85770000       0.00310000
H       -0.07800000       1.56000000       1.31000000
H       -1.08810000      -0.32570000       0.02770000
H       -1.17360000       1.15970000      -0.89480000
H        0.89090000      -1.35450000      -4.53090000
H        2.41890000      -0.80380000      -3.86930000
H        0.01710000      -3.70900000      -3.97780000
H        0.98120000      -4.77480000      -2.94470000
H        0.14930000      -3.37420000      -2.24480000
H        3.56100000      -2.77000000      -4.85250000
H        2.99090000      -4.41010000      -4.51390000
H        2.01720000      -3.32750000      -5.51860000
H        2.41030000      -2.55640000      -1.26960000
H        3.20130000      -3.97410000      -1.98280000
H        3.79990000      -2.34870000      -2.34620000
