21
Properties=species:S:1:pos:R:3 gdb_122676=T pbc="F F F"
C       -0.12420000       1.16920000      -0.18400000
C       -0.04570000      -0.33100000      -0.46130000
O       -1.31380000      -0.95540000      -0.57660000
C       -1.98410000      -1.17110000       0.64670000
C       -3.25860000      -1.93840000       0.32200000
C       -3.01120000      -3.33680000      -0.28120000
O       -3.99530000      -4.14620000       0.34920000
C       -4.11370000      -3.61150000       1.63830000
O       -3.99120000      -2.20570000       1.52010000
H        0.88060000       1.60410000      -0.19420000
H       -0.72410000       1.66770000      -0.95110000
H       -0.56780000       1.38330000       0.79280000
H        0.45180000      -0.50620000      -1.42090000
H        0.55170000      -0.83310000       0.31690000
H       -1.36080000      -1.76260000       1.33920000
H       -2.24110000      -0.22950000       1.15260000
H       -3.88470000      -1.33060000      -0.34230000
H       -3.16060000      -3.38470000      -1.36010000
H       -1.99630000      -3.69160000      -0.04380000
H       -5.10000000      -3.86140000       2.04120000
H       -3.32230000      -4.00460000       2.30360000
