13
Properties=species:S:1:pos:R:3 gdb_131765=T pbc="F F F"
O        0.46900000       0.35380000      -0.96050000
C       -0.44480000       0.57950000       0.08280000
C       -1.56710000      -0.42640000       0.08980000
N       -1.93660000      -1.07790000       1.15560000
O       -2.99200000      -1.88240000       0.76320000
N       -3.26670000      -1.73100000      -0.54350000
C       -2.41060000      -0.84460000      -0.99400000
C       -2.43640000      -0.43530000      -2.40490000
O       -1.64100000       0.33860000      -2.89320000
H        0.00220000       0.53110000      -1.79130000
H        0.09720000       0.49690000       1.02800000
H       -0.88480000       1.58860000       0.04150000
H       -3.25000000      -0.88740000      -2.99980000
