21
Properties=species:S:1:pos:R:3 gdb_105489=T pbc="F F F"
C        0.47060000      -0.60120000       1.61710000
C       -0.01050000      -0.26730000       0.20150000
C       -1.46370000      -0.67690000      -0.10160000
C       -1.81390000      -0.59330000      -1.61080000
O       -1.87460000      -2.02970000      -1.71730000
C       -1.67990000      -2.19940000      -0.30200000
C       -2.41520000       0.11200000       0.79450000
C       -3.12470000      -0.60120000       1.92960000
O       -2.58010000       1.29350000       0.58510000
H        1.52620000      -0.34010000       1.73500000
H       -0.08960000      -0.04720000       2.37740000
H        0.37100000      -1.67030000       1.83700000
H        0.07260000       0.81090000       0.02400000
H        0.63610000      -0.76280000      -0.53280000
H       -2.77400000      -0.11560000      -1.83850000
H       -1.03730000      -0.16200000      -2.25350000
H       -0.81480000      -2.83650000      -0.07850000
H       -2.56580000      -2.62980000       0.18190000
H       -2.44680000      -1.26670000       2.47350000
H       -3.55910000       0.13590000       2.60630000
H       -3.93030000      -1.22670000       1.52720000
