19
Properties=species:S:1:pos:R:3 gdb_39520=T pbc="F F F"
C       -0.09050000       1.48370000       0.11240000
C        1.36340000       1.90750000       0.11360000
C        2.16940000       0.93790000      -0.33690000
C        3.51570000       0.62280000       0.23030000
O        3.31150000      -0.45830000       1.17260000
C        1.96860000      -0.62990000       1.64800000
C        1.00150000      -0.95120000       0.49790000
C        0.01170000      -0.00430000      -0.21510000
C        1.37920000      -0.25990000      -0.78430000
H       -0.53780000       1.68260000       1.09530000
H       -0.71720000       2.00930000      -0.62230000
H        1.70940000       2.79120000       0.64090000
H        4.24310000       0.24990000      -0.49970000
H        3.94910000       1.49310000       0.74320000
H        2.03600000      -1.48150000       2.33000000
H        1.64270000       0.23600000       2.23850000
H        0.70900000      -1.99510000       0.42460000
H       -0.85550000      -0.50020000      -0.63710000
H        1.60430000      -0.79130000      -1.70260000
