23
Properties=species:S:1:pos:R:3 gdb_89560=T pbc="F F F"
C       -0.10250000       1.63140000       0.49720000
C        0.01250000       0.15300000       0.16170000
C        0.94640000      -0.28920000      -1.00120000
C        1.38160000      -1.50580000      -0.15350000
C        0.83390000      -0.77320000       1.10270000
C        0.79300000      -2.91710000      -0.43470000
C        2.12400000      -3.51670000       0.09110000
O        2.65670000      -4.67890000      -0.49160000
C        2.79400000      -2.13800000      -0.14940000
H        0.88730000       2.07680000       0.65120000
H       -0.59510000       2.18650000      -0.30920000
H       -0.68420000       1.78960000       1.41260000
H       -0.98620000      -0.27170000       0.01000000
H        0.49500000      -0.49020000      -1.97780000
H        1.77190000       0.41930000      -1.13820000
H        1.62490000      -0.21450000       1.61640000
H        0.28930000      -1.36600000       1.84380000
H       -0.13960000      -3.20570000       0.05800000
H        0.69190000      -3.09480000      -1.51270000
H        2.05670000      -3.73350000       1.16120000
H        2.73780000      -4.52400000      -1.43880000
H        3.24770000      -2.09820000      -1.14800000
H        3.52270000      -1.77610000       0.58140000
