20
Properties=species:S:1:pos:R:3 gdb_103187=T pbc="F F F"
C       -0.05990000       1.54990000      -0.04000000
C       -0.00420000       0.01910000      -0.02380000
C       -1.40570000      -0.56220000       0.13440000
O       -1.87100000      -0.22430000       1.43620000
C        0.87970000      -0.52570000      -1.15220000
C        2.09950000      -0.43910000      -0.32170000
C        1.13300000      -0.49100000       0.92730000
C        1.16410000      -2.00800000       0.70540000
N        1.59470000      -1.78380000      -0.71740000
H        0.94350000       1.98550000      -0.05770000
H       -0.59900000       1.91420000      -0.92230000
H       -0.58410000       1.91430000       0.84730000
H       -2.05760000      -0.13620000      -0.64650000
H       -1.39920000      -1.65040000      -0.01330000
H       -2.76670000      -0.55970000       1.53420000
H        0.76860000      -0.39240000      -2.22150000
H        3.10490000      -0.08430000      -0.50450000
H        1.26990000      -0.02950000       1.90310000
H        1.99120000      -2.49500000       1.22880000
H        0.25060000      -2.59420000       0.84810000
