17
Properties=species:S:1:pos:R:3 gdb_40037=T pbc="F F F"
C        0.07740000       1.52810000       0.00450000
O        1.20460000       0.64100000       0.00270000
C       -0.10730000       0.07450000       0.01790000
C       -0.52030000      -0.74040000       1.25100000
C       -1.45610000      -1.78510000       0.65260000
O       -2.59350000      -1.07030000       0.05760000
C       -1.97630000      -1.20640000      -1.22140000
C       -0.90780000      -2.13590000      -0.75540000
C       -0.53050000      -0.72890000      -1.18740000
H       -0.06540000       2.10100000       0.92000000
H       -0.07880000       2.08670000      -0.91810000
H        0.36630000      -1.21220000       1.69040000
H       -1.01690000      -0.14060000       2.01780000
H       -1.78740000      -2.58580000       1.31400000
H       -2.60960000      -1.18560000      -2.10020000
H       -0.51910000      -3.07280000      -1.12750000
H       -0.03000000      -0.56480000      -2.13420000
