19
Properties=species:S:1:pos:R:3 gdb_70662=T pbc="F F F"
C       -0.22430000       1.33790000      -0.11590000
C        0.02410000      -0.14280000       0.02790000
C       -0.73790000      -0.99320000       1.01840000
C        0.74220000      -0.76880000       1.20260000
C        1.65590000      -1.83130000       0.62770000
O        1.15540000      -2.09910000      -0.68160000
C        0.53410000      -0.93960000      -1.18730000
C       -0.60020000      -1.31330000      -2.12510000
O       -1.07480000      -2.41020000      -2.24160000
H        0.65790000       1.85370000      -0.51290000
H       -1.06320000       1.54680000      -0.78940000
H       -0.46610000       1.78620000       0.85240000
H       -1.40940000      -0.47740000       1.69600000
H       -1.07350000      -1.97570000       0.70090000
H        1.09880000      -0.15750000       2.02390000
H        2.69310000      -1.46220000       0.58670000
H        1.64860000      -2.78050000       1.17320000
H        1.24280000      -0.30370000      -1.75210000
H       -0.99400000      -0.44150000      -2.69920000
