23
Properties=species:S:1:pos:R:3 gdb_121146=T pbc="F F F"
C       -0.55280000       1.30100000      -0.31010000
O       -0.77200000      -0.07820000      -0.48800000
C       -0.87800000      -0.78180000       0.73130000
C       -1.06070000      -2.25190000       0.40140000
O       -1.17520000      -3.04990000       1.59720000
C       -2.35420000      -3.71470000       1.09660000
C       -2.41800000      -2.79080000      -0.14860000
C       -3.58330000      -1.80260000      -0.13020000
C       -2.31500000      -3.49590000      -1.49810000
H       -0.48290000       1.75310000      -1.30250000
H       -1.37820000       1.77850000       0.24130000
H        0.38250000       1.49680000       0.23730000
H        0.03570000      -0.66550000       1.33890000
H       -1.71820000      -0.40560000       1.33510000
H       -0.20880000      -2.57390000      -0.21530000
H       -2.16210000      -4.77370000       0.87750000
H       -3.19270000      -3.64350000       1.80050000
H       -3.72620000      -1.35840000       0.85950000
H       -3.41620000      -0.99150000      -0.84540000
H       -4.51640000      -2.31000000      -0.39960000
H       -3.23570000      -4.04460000      -1.72720000
H       -2.14840000      -2.77080000      -2.30210000
H       -1.48580000      -4.21070000      -1.51300000
