19
Properties=species:S:1:pos:R:3 gdb_41154=T pbc="F F F"
C       -0.05520000       1.52340000       0.05340000
C        1.50560000       1.57900000      -0.09810000
C        1.42370000       0.17130000      -0.69560000
C        2.22400000      -1.12390000      -0.82800000
C        1.23230000      -1.28710000      -2.01160000
C       -0.17440000      -1.75940000      -1.58050000
O       -0.84170000      -0.77160000      -0.79190000
C        0.05930000      -0.02190000      -0.01330000
O        1.16580000       0.15930000      -2.13170000
H       -0.49950000       1.96150000       0.94830000
H       -0.55250000       1.90820000      -0.83790000
H        1.93070000       2.34700000      -0.74640000
H        2.02010000       1.59070000       0.86620000
H        3.24890000      -0.98860000      -1.17990000
H        2.18370000      -1.83390000       0.00250000
H        1.57200000      -1.78150000      -2.92480000
H       -0.80380000      -1.91390000      -2.46230000
H       -0.10340000      -2.71700000      -1.03930000
H        0.16930000      -0.45230000       0.99490000
