19
Properties=species:S:1:pos:R:3 gdb_80876=T pbc="F F F"
C       -0.00840000       1.48570000       0.01040000
C       -0.04320000      -0.01970000       0.01660000
N        0.46620000      -0.76860000      -1.19440000
C       -0.29580000      -1.92320000      -0.60380000
C        0.48600000      -2.18030000       0.69790000
N        1.84460000      -1.58490000       0.72670000
C        0.66920000      -0.78980000       1.15670000
C       -1.35180000      -0.86860000      -0.10550000
O       -2.11030000      -1.05670000       1.06300000
H        1.02290000       1.84230000      -0.07400000
H       -0.58280000       1.89780000      -0.82650000
H       -0.43410000       1.88380000       0.93740000
H       -0.07280000      -0.43260000      -1.99440000
H       -0.53820000      -2.76150000      -1.25710000
H        0.22070000      -2.99980000       1.35320000
H        2.29950000      -1.92420000       1.57420000
H        0.55390000      -0.47000000       2.18470000
H       -1.97380000      -0.51030000      -0.93860000
H       -2.92990000      -1.50320000       0.83030000
