21
Properties=species:S:1:pos:R:3 gdb_5838=T pbc="F F F"
C        0.26040000       1.42620000       0.02400000
N        0.09920000      -0.02430000       0.03180000
C       -0.06040000      -0.61800000       1.25220000
O       -0.04490000      -0.03710000       2.32180000
C        0.01670000      -0.74400000      -1.26560000
C        1.16270000      -0.26410000      -2.17890000
C        0.16140000      -2.26620000      -1.08770000
C       -1.34390000      -0.45260000      -1.93400000
H        1.27830000       1.72040000      -0.25290000
H       -0.43910000       1.89960000      -0.67130000
H        0.05850000       1.77890000       1.03480000
H       -0.20640000      -1.70540000       1.19070000
H        2.13470000      -0.43760000      -1.70700000
H        1.13750000      -0.81520000      -3.12330000
H        1.08100000       0.79910000      -2.41670000
H       -0.68640000      -2.71370000      -0.56270000
H        0.20490000      -2.72540000      -2.07930000
H        1.08060000      -2.52710000      -0.55540000
H       -1.48280000       0.61480000      -2.12520000
H       -1.41560000      -0.97130000      -2.89530000
H       -2.16490000      -0.79500000      -1.29710000
