20
Properties=species:S:1:pos:R:3 gdb_55698=T pbc="F F F"
N       -1.60670000      -0.00780000      -1.98030000
C       -2.49130000      -0.38520000      -1.01210000
O       -3.69830000      -0.29310000      -1.13970000
C       -1.84720000      -0.90310000       0.27800000
C       -0.95830000      -2.13800000       0.09620000
O        0.20800000      -1.70090000      -0.59110000
C       -0.74000000      -2.92620000       1.42070000
C       -1.86820000      -3.89950000       0.98440000
C       -1.71780000      -3.37620000      -0.47030000
H       -1.98880000       0.22450000      -2.88320000
H       -0.65030000      -0.32330000      -1.91360000
H       -1.23890000      -0.11200000       0.73180000
H       -2.66970000      -1.13370000       0.95670000
H        0.73440000      -2.47510000      -0.81460000
H        0.24060000      -3.41370000       1.41790000
H       -0.85320000      -2.37800000       2.35950000
H       -1.69590000      -4.96420000       1.14970000
H       -2.83570000      -3.63530000       1.41730000
H       -2.62400000      -3.18680000      -1.05000000
H       -1.04760000      -4.00950000      -1.06220000
