11
Properties=species:S:1:pos:R:3 gdb_2958=T pbc="F F F"
O        0.86120000       1.07060000      -1.97380000
C        0.25320000       1.54170000      -1.03740000
C        0.84410000       1.68530000       0.28150000
C        1.35840000       1.77990000       1.36540000
C       -1.16900000       2.00030000      -1.18800000
C       -2.17300000       1.69780000      -0.14590000
O       -1.63740000       3.00300000      -0.28880000
H        1.81850000       1.86840000       2.31980000
H       -1.48610000       2.09340000      -2.22470000
H       -3.21010000       1.57170000      -0.45180000
H       -1.86770000       1.16330000       0.75130000
