14
Properties=species:S:1:pos:R:3 gdb_132992=T pbc="F F F"
C       -0.01070000       1.44780000       0.00580000
N       -0.00560000      -0.01350000      -0.01750000
C       -0.14720000      -0.71060000      -1.17860000
N       -0.15270000      -2.00160000      -1.27900000
C       -0.00270000      -2.70270000      -0.11160000
C        0.14490000      -2.09960000       1.09350000
F        0.28870000      -2.79910000       2.21180000
C        0.15470000      -0.65550000       1.23460000
O        0.27970000      -0.01580000       2.26070000
H        0.92950000       1.81530000       0.42230000
H       -0.14070000       1.81940000      -1.01090000
H       -0.82220000       1.80560000       0.64280000
H       -0.26260000      -0.10560000      -2.07370000
H       -0.00560000      -3.78610000      -0.18230000
