16
Properties=species:S:1:pos:R:3 gdb_24067=T pbc="F F F"
N       -0.00410000      -1.18850000       0.11090000
C       -0.02420000      -0.03310000       0.10380000
C       -0.01520000       1.42770000       0.09380000
C        1.41020000       2.00860000      -0.11490000
C        1.42880000       3.50030000      -0.10830000
C        1.47440000       4.42880000      -1.11830000
N        1.43730000       5.71020000      -0.62010000
C        1.36870000       5.57040000       0.68210000
N        1.35480000       4.25610000       1.04880000
H       -0.67780000       1.78530000      -0.70100000
H       -0.43800000       1.78610000       1.03880000
H        2.07470000       1.60220000       0.65650000
H        1.79670000       1.65490000      -1.07430000
H        1.53770000       4.23950000      -2.17990000
H        1.32950000       6.37000000       1.40690000
H        1.34150000       3.90150000       1.99100000
