20
Properties=species:S:1:pos:R:3 gdb_65097=T pbc="F F F"
C        0.51610000       0.35870000       1.39520000
C       -0.00120000       0.09060000      -0.00420000
C        0.62610000       0.78200000      -1.15840000
N        0.84130000      -0.66360000      -0.95460000
C       -1.43950000      -0.28740000      -0.06580000
C       -2.08370000      -1.64310000       0.28630000
C       -3.23460000      -1.30270000      -0.72460000
C       -2.52680000       0.02890000      -1.00740000
O       -2.41480000       0.72290000       0.24410000
H        1.57080000       0.65170000       1.37400000
H       -0.05530000       1.16420000       1.86650000
H        0.42230000      -0.53240000       2.02630000
H        0.03470000       1.03620000      -2.03270000
H        1.44390000       1.46730000      -0.95020000
H        1.75960000      -0.81990000      -0.54450000
H       -1.47860000      -2.49080000      -0.04060000
H       -2.36720000      -1.76640000       1.33410000
H       -3.24680000      -1.97510000      -1.58530000
H       -4.24300000      -1.20990000      -0.31510000
H       -2.53720000       0.63630000      -1.90570000
