21
Properties=species:S:1:pos:R:3 gdb_64249=T pbc="F F F"
C        0.16490000       1.40080000       0.12540000
C       -0.07530000      -0.10530000      -0.05690000
C       -1.56350000      -0.43490000      -0.05170000
C        0.67880000      -0.65650000      -1.28570000
C        2.07200000      -0.87740000      -0.72850000
C        3.23770000      -1.31460000      -1.49590000
O        3.09690000       0.05420000      -1.09990000
C        1.87440000      -1.12900000       0.76560000
O        0.51400000      -0.83140000       1.04490000
H        1.23150000       1.64020000       0.08900000
H       -0.33430000       1.97350000      -0.66330000
H       -0.23040000       1.72570000       1.09200000
H       -2.07150000       0.05600000      -0.88760000
H       -1.71540000      -1.51470000      -0.13370000
H       -2.02680000      -0.09370000       0.87880000
H        0.23690000      -1.61000000      -1.59570000
H        0.69090000       0.02240000      -2.14060000
H        4.03860000      -1.86380000      -1.00070000
H        3.14330000      -1.50710000      -2.56450000
H        2.06040000      -2.17340000       1.04410000
H        2.56130000      -0.49000000       1.33720000
