18
Properties=species:S:1:pos:R:3 gdb_62985=T pbc="F F F"
C       -0.14120000       1.56060000      -0.17190000
C       -0.00930000       0.05540000      -0.04800000
O       -1.24380000      -0.57570000       0.22550000
C        0.65580000      -0.70700000      -1.20340000
N        2.02690000      -0.16290000      -1.32820000
C        1.74220000      -1.21670000      -0.33160000
C        1.15530000      -0.51620000       0.90760000
C        1.99290000       0.38370000       1.67040000
C        2.66750000       1.14310000       2.31510000
H        0.80980000       2.00030000      -0.47620000
H       -0.90900000       1.80720000      -0.91210000
H       -0.42620000       2.00430000       0.78960000
H       -1.66370000      -0.10280000       0.95240000
H        0.14050000      -1.17380000      -2.03330000
H        2.46050000      -0.61430000      -2.13250000
H        2.27080000      -2.16150000      -0.34700000
H        0.67540000      -1.25370000       1.55740000
H        3.27520000       1.80990000       2.87460000
