17
Properties=species:S:1:pos:R:3 gdb_88123=T pbc="F F F"
C       -0.06010000       1.51570000       0.06590000
C        0.03580000       0.00850000       0.02100000
C        1.35930000      -0.67210000      -0.24290000
C        0.76670000      -0.73160000       1.12890000
O        1.38450000      -0.05240000       2.19340000
C        0.80470000      -0.57530000       3.36810000
O        0.31160000      -1.87710000       3.05890000
C        0.19820000      -1.98450000       1.70190000
O       -0.28350000      -2.92670000       1.14490000
H        0.81470000       1.94970000       0.55730000
H       -0.12620000       1.92930000      -0.94560000
H       -0.94840000       1.83880000       0.61860000
H       -0.83930000      -0.51370000      -0.35680000
H        1.37370000      -1.59490000      -0.81220000
H        2.23360000      -0.03820000      -0.34800000
H        1.57100000      -0.65500000       4.14310000
H       -0.03590000       0.04400000       3.71540000
