19
Properties=species:S:1:pos:R:3 gdb_26374=T pbc="F F F"
C        0.00260000       1.54850000      -0.01580000
C       -0.02770000       0.01730000       0.05690000
C        0.77650000      -0.52450000       1.24450000
N       -1.39830000      -0.48560000       0.07140000
C       -2.37810000      -0.26440000       1.03850000
C       -3.49640000      -0.91290000       0.65520000
N       -3.20980000      -1.53880000      -0.55460000
C       -1.90280000      -1.29140000      -0.94780000
O       -1.32630000      -1.68220000      -1.94840000
H        1.03410000       1.90260000      -0.10450000
H       -0.56080000       1.90780000      -0.88110000
H       -0.42820000       1.99950000       0.88510000
H        0.38650000      -0.39150000      -0.86980000
H        0.75510000      -1.61740000       1.26230000
H        1.81930000      -0.20090000       1.17410000
H        0.37770000      -0.15820000       2.19710000
H       -2.19350000       0.33450000       1.91330000
H       -4.46010000      -0.98530000       1.12770000
H       -3.83010000      -2.10360000      -1.10620000
