21
Properties=species:S:1:pos:R:3 gdb_59972=T pbc="F F F"
C        0.04990000       1.53570000      -0.16330000
C        0.03150000       0.03720000       0.11870000
O        0.46100000      -0.14090000       1.45450000
C       -1.36670000      -0.56890000      -0.10910000
C       -1.36520000      -2.11060000      -0.06340000
O       -0.76160000      -2.60030000       1.11520000
C       -2.78300000      -2.68030000      -0.16240000
C       -3.60700000      -2.37850000      -1.39020000
O       -3.20360000      -3.35050000       0.75810000
H        1.03900000       1.94080000       0.06640000
H       -0.17850000       1.74550000      -1.21290000
H       -0.68140000       2.05180000       0.46740000
H        0.73110000      -0.45890000      -0.58040000
H        0.26210000      -1.05900000       1.68730000
H       -2.04150000      -0.17800000       0.66300000
H       -1.74720000      -0.24690000      -1.08560000
H       -0.79650000      -2.48160000      -0.93230000
H       -1.46910000      -3.08230000       1.57930000
H       -3.99920000      -1.35720000      -1.32440000
H       -3.00270000      -2.43490000      -2.30040000
H       -4.44720000      -3.07150000      -1.44840000
