19
Properties=species:S:1:pos:R:3 gdb_17842=T pbc="F F F"
C        0.48550000       0.42710000      -1.41450000
C        0.02270000       0.08290000       0.00340000
O        0.11730000       1.21270000       0.87130000
C       -1.38680000      -0.48300000      -0.01530000
C       -1.76390000      -1.90240000       0.16550000
C       -0.86310000      -2.63710000       1.15710000
C       -1.19180000      -1.49800000       2.15530000
N       -2.15710000      -0.84730000       1.19260000
H        1.49340000       0.84880000      -1.38780000
H        0.49280000      -0.46290000      -2.05280000
H       -0.18240000       1.16620000      -1.87230000
H        0.72230000      -0.64320000       0.42790000
H       -0.64530000       1.77790000       0.70650000
H       -2.04050000       0.05680000      -0.70280000
H       -2.50250000      -2.38040000      -0.47160000
H       -1.28300000      -3.59560000       1.46700000
H        0.17940000      -2.79590000       0.86450000
H       -1.73880000      -1.83700000       3.03660000
H       -0.38100000      -0.83770000       2.47040000
