18
Properties=species:S:1:pos:R:3 gdb_112212=T pbc="F F F"
O        0.03070000       1.43560000      -0.18070000
C       -0.01490000       0.11620000       0.32380000
C       -1.35570000      -0.53130000       0.04050000
O       -1.55980000      -0.63460000      -1.42060000
C       -1.65390000      -2.01770000      -1.35040000
N       -1.83230000      -2.87800000      -2.24420000
C       -1.47740000      -2.05040000       0.12660000
C       -0.71360000      -3.06620000       0.93310000
C       -2.20100000      -2.93370000       1.10300000
H       -0.16350000       1.37640000      -1.12360000
H        0.78610000      -0.51290000      -0.09450000
H        0.14230000       0.18430000       1.40620000
H       -2.17530000       0.04490000       0.48020000
H       -1.91660000      -2.45490000      -3.16890000
H       -0.32990000      -3.92390000       0.39210000
H       -0.07250000      -2.70140000       1.72850000
H       -2.57490000      -2.47380000       2.01180000
H       -2.83920000      -3.70130000       0.67980000
