15
Properties=species:S:1:pos:R:3 gdb_85225=T pbc="F F F"
O       -0.07010000       1.44320000       0.01930000
C        0.08290000       0.04920000       0.09680000
C        0.09510000      -0.36410000       1.59480000
C       -1.41840000      -0.59900000       1.46500000
O       -2.35360000      -0.59370000       2.20680000
C       -1.28660000      -0.67510000      -0.07710000
O       -2.19000000       0.01030000      -0.92050000
C       -3.51830000      -0.26640000      -0.79740000
O       -4.33120000       0.28030000      -1.47510000
H       -0.63800000       1.63650000      -0.73720000
H        0.90220000      -0.32030000      -0.52910000
H        0.64220000      -1.29080000       1.79280000
H        0.40800000       0.41100000       2.29540000
H       -1.15320000      -1.71750000      -0.39550000
H       -3.73050000      -1.02250000      -0.02490000
