11
Properties=species:S:1:pos:R:3 gdb_20696=T pbc="F F F"
C       -0.01190000       1.49140000      -0.02190000
C       -0.06070000       0.00300000       0.01340000
N       -1.12960000      -0.65090000      -0.25290000
C       -1.08400000      -2.04430000      -0.19530000
O       -2.00390000      -2.76600000      -0.42000000
O        0.13810000      -2.61850000       0.15320000
N        1.27980000      -1.82580000       0.43430000
N        1.18070000      -0.59900000       0.36710000
H        0.75100000       1.81810000      -0.73690000
H       -0.98500000       1.89510000      -0.29700000
H        0.29480000       1.87340000       0.95790000
