23
Properties=species:S:1:pos:R:3 gdb_96158=T pbc="F F F"
C        0.03580000       1.57500000      -0.04140000
C       -0.02120000       0.04160000       0.01580000
C        0.67710000      -0.52520000      -1.23650000
O        0.57760000      -1.91950000      -1.45170000
C        1.31880000      -2.72220000      -0.54490000
C        0.54430000      -3.03670000       0.71700000
C        1.19670000      -2.95450000       2.07830000
C        0.19030000      -1.91240000       1.65790000
C        0.59610000      -0.48580000       1.32880000
H        1.07140000       1.93390000       0.00260000
H       -0.40970000       1.96070000      -0.96440000
H       -0.50260000       2.01920000       0.80140000
H       -1.07330000      -0.27140000      -0.02250000
H        0.23390000      -0.06760000      -2.12800000
H        1.74130000      -0.22640000      -1.20990000
H        1.55350000      -3.64790000      -1.08210000
H        2.27680000      -2.23500000      -0.30510000
H       -0.21400000      -3.80390000       0.58900000
H        0.91740000      -3.68310000       2.83150000
H        2.24030000      -2.65560000       2.11890000
H       -0.79230000      -1.99260000       2.11590000
H        1.68910000      -0.40170000       1.26560000
H        0.29900000       0.16710000       2.15900000
