13
Properties=species:S:1:pos:R:3 gdb_44176=T pbc="F F F"
N       -0.19770000       1.13710000      -0.65070000
C       -0.08340000       0.01330000      -0.12280000
O        1.03980000      -0.66040000       0.37560000
C        0.26150000      -1.83890000       0.68200000
C       -0.36160000      -1.76340000       2.09810000
O       -1.51130000      -1.04970000       1.58150000
C       -1.02530000      -1.13050000       0.21850000
C       -0.73390000      -3.05060000       2.68400000
N       -1.00470000      -4.08280000       3.12640000
H        0.69020000       1.64020000      -0.69340000
H        0.70400000      -2.76030000       0.31350000
H        0.21720000      -1.17050000       2.81350000
H       -1.77650000      -1.46470000      -0.49420000
