15
Properties=species:S:1:pos:R:3 gdb_24386=T pbc="F F F"
C       -0.00820000       1.52570000      -0.03940000
N        1.36380000       2.05140000       0.02930000
C        2.35520000       1.27990000       0.25070000
N        2.33790000      -0.08570000       0.46620000
C        1.11690000      -0.71270000       0.23470000
C       -0.00350000       0.02970000      -0.00130000
N       -0.99340000      -0.91600000      -0.19110000
C       -0.41170000      -2.14360000      -0.05760000
N        0.87980000      -2.05530000       0.20350000
H       -0.58690000       1.96430000       0.79060000
H       -0.47870000       1.91490000      -0.95570000
H        3.35190000       1.71840000       0.29900000
H        3.18920000      -0.62020000       0.40840000
H       -1.96520000      -0.73780000      -0.38100000
H       -0.97080000      -3.06100000      -0.15690000
