16
Properties=species:S:1:pos:R:3 gdb_97528=T pbc="F F F"
C        0.27720000       0.97280000       0.75920000
C       -0.26180000       0.39300000      -0.56150000
C       -1.52990000      -0.30890000      -0.39830000
C       -2.57330000      -0.88310000      -0.23360000
C       -3.85190000      -1.58380000      -0.05760000
C       -3.68110000      -2.97500000       0.38610000
C       -3.54790000      -4.11630000       0.72840000
C       -4.73600000      -0.84470000       0.87280000
N       -5.43590000      -0.26190000       1.58170000
H        1.22590000       1.48810000       0.58500000
H       -0.43080000       1.68680000       1.18780000
H        0.44370000       0.17970000       1.49260000
H       -0.38900000       1.19810000      -1.29580000
H        0.47490000      -0.29670000      -0.99210000
H       -4.37690000      -1.60030000      -1.02560000
H       -3.42600000      -5.12480000       1.03940000
