18
Properties=species:S:1:pos:R:3 gdb_45751=T pbc="F F F"
O        0.24000000       0.09510000       0.11710000
C        0.05730000       1.28170000       0.07120000
C       -1.30100000       1.99500000       0.04070000
C       -0.91840000       3.45020000       0.04620000
C        0.40120000       3.64140000       0.04980000
C        1.17970000       2.35250000       0.03730000
N        2.05490000       2.20030000       1.19600000
C        3.10010000       1.18660000       1.07470000
C        3.44220000       2.63320000       1.01980000
H       -1.86250000       1.68850000      -0.85170000
H       -1.91000000       1.69260000       0.90210000
H       -1.65740000       4.24350000       0.04760000
H        0.89330000       4.60700000       0.06260000
H        1.74050000       2.22670000      -0.91070000
H        3.29190000       0.60640000       1.97180000
H        3.15190000       0.61940000       0.14880000
H        3.73070000       3.04180000       0.05240000
H        3.88880000       3.13170000       1.87490000
