21
Properties=species:S:1:pos:R:3 gdb_59370=T pbc="F F F"
C       -0.07140000       1.50850000      -0.15240000
C       -0.05690000      -0.01240000      -0.04770000
O        0.79990000      -0.47370000       0.99350000
C       -1.47030000      -0.59490000       0.15530000
O       -2.34020000      -0.17000000      -0.89400000
C       -3.00080000      -1.29270000      -1.49670000
C       -2.81890000      -1.24820000      -3.01320000
C       -2.38630000      -2.48920000      -0.81820000
C       -1.52480000      -2.09710000       0.11210000
H        0.94030000       1.89030000      -0.31470000
H       -0.71460000       1.82720000      -0.97580000
H       -0.46480000       1.95480000       0.77080000
H        0.35390000      -0.44260000      -0.96840000
H        0.57790000       0.01720000       1.79260000
H       -1.84840000      -0.21060000       1.12260000
H       -4.07940000      -1.22750000      -1.27130000
H       -1.76010000      -1.33390000      -3.27400000
H       -3.36610000      -2.06800000      -3.49060000
H       -3.20170000      -0.30380000      -3.41060000
H       -2.64160000      -3.50760000      -1.08370000
H       -0.92090000      -2.71710000       0.76010000
