17
Properties=species:S:1:pos:R:3 gdb_2203=T pbc="F F F"
C       -0.12260000       1.51100000      -0.00040000
C       -0.00580000      -0.01160000       0.00910000
C        1.14050000      -0.57510000      -0.87770000
O        1.53190000       0.27870000      -1.92770000
C        2.04270000      -0.67970000       0.38330000
C        0.74830000      -0.59190000       1.23890000
O        0.73540000       0.24460000       2.37250000
H        0.83740000       1.99890000       0.18190000
H       -0.49160000       1.85360000      -0.97060000
H       -0.81650000       1.83970000       0.77760000
H       -0.98820000      -0.45530000      -0.17640000
H        0.88410000      -1.57310000      -1.26110000
H        2.28590000      -0.11910000      -2.37410000
H        2.68700000      -1.55610000       0.49570000
H        2.63460000       0.23230000       0.50030000
H        0.37450000      -1.59500000       1.48970000
H        1.27940000      -0.16290000       3.05370000
