16
Properties=species:S:1:pos:R:3 gdb_37190=T pbc="F F F"
C        0.09570000       1.51180000       0.19620000
O        1.50890000       1.43520000      -0.16820000
C        1.28720000       0.20770000      -0.90660000
C        1.51790000      -1.20910000      -0.33850000
N        0.77490000      -0.76240000       0.88040000
C       -0.03920000       0.03180000      -0.15020000
C       -0.79060000      -1.06110000      -0.91650000
O       -0.25650000      -1.29770000      -2.23330000
C        0.35960000      -1.96350000      -1.11890000
H       -0.04400000       1.78220000       1.24530000
H       -0.44640000       2.19920000      -0.46500000
H        1.36290000       0.35910000      -1.97960000
H        2.46630000      -1.73600000      -0.21780000
H        0.22270000      -1.52050000       1.28580000
H       -1.81520000      -1.37210000      -0.74470000
H        0.30590000      -3.04820000      -1.12180000
