14
Properties=species:S:1:pos:R:3 gdb_11089=T pbc="F F F"
C       -0.43010000      -1.11520000      -0.50970000
C       -0.11670000       0.00760000      -0.21650000
C        0.24680000       1.36730000       0.14320000
C       -0.13770000       1.84820000       1.56740000
C        1.39180000       1.98890000       1.78700000
O        1.66130000       1.52810000       0.43540000
C        1.90170000       3.32270000       2.05400000
C        2.31390000       4.42810000       2.28420000
H       -0.70200000      -2.10730000      -0.77430000
H       -0.05700000       2.05660000      -0.65410000
H       -0.69420000       2.78360000       1.59970000
H       -0.62190000       1.09750000       2.19020000
H        1.80140000       1.28120000       2.51820000
H        2.68530000       5.40280000       2.48510000
