19
Properties=species:S:1:pos:R:3 gdb_120720=T pbc="F F F"
N        0.37170000       0.99050000      -0.79610000
C        0.14440000       0.16050000       0.26940000
O        0.98070000      -0.03990000       1.12650000
C       -1.22830000      -0.46590000       0.26300000
N       -1.37560000      -1.75150000       0.96190000
C       -2.06630000      -0.58080000       1.50380000
C       -1.63400000      -0.08630000       2.86340000
C       -2.22370000      -0.94210000       3.98010000
O       -1.85960000      -0.34960000       5.21740000
H        1.22360000       1.52740000      -0.79410000
H       -0.35730000       1.25670000      -1.43440000
H       -1.78310000      -0.33620000      -0.66530000
H       -2.01290000      -2.35060000       0.44460000
H       -3.13970000      -0.51490000       1.31740000
H       -0.54490000      -0.09930000       2.92900000
H       -1.96930000       0.94920000       2.99960000
H       -3.32180000      -0.99640000       3.87630000
H       -1.83430000      -1.96730000       3.89140000
H       -2.13250000      -0.94090000       5.92460000
