18
Properties=species:S:1:pos:R:3 gdb_35334=T pbc="F F F"
N       -1.01570000      -0.44770000      -1.32610000
C       -0.53760000       0.41640000      -0.72450000
C        0.07720000       1.48070000       0.04890000
C       -0.07370000       1.44760000       1.60360000
C        1.41020000       1.86790000       1.72390000
C        1.77530000       3.29780000       2.18330000
O        2.61690000       2.79310000       3.23680000
C        2.32770000       1.42790000       2.87530000
C        1.62620000       1.44890000       0.25040000
H       -0.24420000       2.44500000      -0.35390000
H       -0.82670000       2.10870000       2.03810000
H       -0.24090000       0.42970000       1.96530000
H        2.33940000       3.89970000       1.45800000
H        0.94170000       3.89740000       2.57350000
H        1.83220000       0.88060000       3.68840000
H        3.23030000       0.87940000       2.57440000
H        2.01710000       0.43140000       0.16800000
H        2.21790000       2.11090000      -0.38550000
