26
Properties=species:S:1:pos:R:3 gdb_60123=T pbc="F F F"
C        4.48670000      -3.84090000      -0.11950000
C        3.02540000      -3.86860000      -0.58530000
C        2.85280000      -4.80390000      -1.78980000
C        2.08950000      -4.24410000       0.58090000
C        0.61860000      -4.09360000       0.23270000
C       -0.31700000      -5.23870000      -0.02110000
C        0.09440000      -6.69450000       0.03140000
N       -0.46740000      -4.39910000       1.17040000
C       -0.16550000      -4.93050000       2.49120000
H        5.15520000      -3.53530000      -0.93120000
H        4.62860000      -3.14370000       0.71300000
H        4.80970000      -4.83300000       0.21860000
H        2.75630000      -2.85190000      -0.90720000
H        1.82370000      -4.80140000      -2.16040000
H        3.50750000      -4.50530000      -2.61530000
H        3.10930000      -5.83600000      -1.52100000
H        2.32730000      -5.26080000       0.91210000
H        2.31510000      -3.58680000       1.43230000
H        0.42570000      -3.17560000      -0.32670000
H       -1.11240000      -5.06270000      -0.74700000
H        0.94150000      -6.88700000       0.69200000
H       -0.74080000      -7.31630000       0.37320000
H        0.37140000      -7.04040000      -0.97020000
H        0.69800000      -5.60730000       2.55410000
H        0.01880000      -4.09250000       3.17170000
H       -1.04320000      -5.47010000       2.86210000
