21
Properties=species:S:1:pos:R:3 gdb_26212=T pbc="F F F"
C       -0.08740000       1.55860000       0.69220000
C       -0.10070000       0.18630000       0.00870000
C        1.04640000      -0.70610000       0.51720000
C       -1.42370000      -0.51310000       0.15710000
C       -2.52650000      -0.15350000       0.89300000
N       -3.46590000      -1.14440000       0.68920000
C       -4.79650000      -1.20730000       1.25540000
C       -2.89090000      -2.04750000      -0.15320000
N       -1.67080000      -1.70570000      -0.49390000
H        0.87200000       2.05980000       0.53170000
H       -0.87730000       2.20960000       0.30380000
H       -0.23090000       1.46060000       1.77470000
H        0.06110000       0.33910000      -1.06760000
H        2.01860000      -0.24380000       0.31530000
H        0.96310000      -0.86460000       1.59850000
H        1.01500000      -1.68280000       0.02890000
H       -2.73560000       0.69260000       1.52610000
H       -5.39530000      -0.34360000       0.94920000
H       -5.29020000      -2.11450000       0.90130000
H       -4.75730000      -1.23730000       2.34900000
H       -3.41940000      -2.93190000      -0.48050000
