22
Properties=species:S:1:pos:R:3 gdb_12413=T pbc="F F F"
C       -0.05820000       1.56620000      -0.04930000
C        0.05450000       0.03960000      -0.00990000
C        0.67500000      -0.52910000      -1.29870000
C        0.79750000      -2.05240000      -1.21730000
O        1.50400000      -2.46540000      -0.05990000
C        0.86160000      -2.03560000       1.12900000
C        0.80660000      -0.50290000       1.23420000
C        2.21460000       0.07700000       1.43600000
H        0.91640000       2.04140000      -0.20080000
H       -0.70860000       1.88510000      -0.87090000
H       -0.48030000       1.95840000       0.88280000
H       -0.96800000      -0.36280000       0.05690000
H        0.06230000      -0.25660000      -2.16710000
H        1.66850000      -0.09460000      -1.46300000
H       -0.20970000      -2.50660000      -1.22100000
H        1.34840000      -2.45500000      -2.07270000
H       -0.16120000      -2.44990000       1.17200000
H        1.43410000      -2.46700000       1.95650000
H        0.20610000      -0.25740000       2.12150000
H        2.88170000      -0.19890000       0.61500000
H        2.20160000       1.16710000       1.51780000
H        2.65530000      -0.31550000       2.35870000
