21
Properties=species:S:1:pos:R:3 gdb_88378=T pbc="F F F"
C       -1.49750000      -1.35430000       2.61260000
C       -0.61320000      -1.33670000       1.39290000
O       -0.60340000      -0.16060000       0.56520000
C        0.61310000      -0.54510000       1.19460000
C        1.31090000       0.42270000       2.16070000
C        2.18360000      -0.40960000       3.13000000
C        2.21470000       1.35200000       1.30860000
C        0.39100000       1.27400000       2.92030000
C       -0.27830000       2.03750000       3.56450000
H       -1.40650000      -0.44180000       3.19910000
H       -2.54320000      -1.47170000       2.30800000
H       -1.23990000      -2.21240000       3.24370000
H       -0.66400000      -2.25770000       0.80550000
H        1.34470000      -0.97650000       0.50400000
H        2.86130000      -1.05840000       2.56490000
H        2.78630000       0.24770000       3.76230000
H        1.56480000      -1.03650000       3.77680000
H        1.61510000       1.91130000       0.58620000
H        2.74030000       2.06550000       1.94830000
H        2.95800000       0.76060000       0.76350000
H       -0.89770000       2.69720000       4.12050000
