15
Properties=species:S:1:pos:R:3 gdb_55517=T pbc="F F F"
N       -0.25260000       1.33960000       0.01770000
C        0.10950000       0.00650000       0.06220000
O        1.24660000      -0.37730000       0.17240000
N       -1.01690000      -0.83550000       0.01930000
C       -1.02530000      -2.20540000      -0.02640000
O       -0.07580000      -2.95220000      -0.10150000
C       -2.45840000      -2.75370000       0.02230000
N       -2.46610000      -4.10320000      -0.06370000
N       -3.42500000      -1.91720000       0.12140000
H        0.52680000       1.96470000      -0.11620000
H       -1.10740000       1.60850000      -0.44380000
H       -1.95540000      -0.45230000       0.09510000
H       -1.56760000      -4.56230000      -0.06780000
H       -3.30720000      -4.63810000       0.05540000
H       -4.33980000      -2.36710000       0.14980000
