19
Properties=species:S:1:pos:R:3 gdb_109440=T pbc="F F F"
C        0.26840000       1.52610000      -0.25910000
O       -0.31020000       0.27380000      -0.59610000
C        0.58550000      -0.60490000      -1.19960000
C        1.66560000      -1.32120000      -0.36170000
O        2.32710000      -1.00530000       0.58660000
C        1.39330000      -2.64490000      -1.08850000
C        0.04630000      -2.03230000      -1.57320000
C       -1.15640000      -2.45060000      -0.73560000
O       -0.15410000      -2.26540000      -2.95100000
H        1.09530000       1.40600000       0.44960000
H        0.63950000       2.04520000      -1.15610000
H       -0.52050000       2.12710000       0.19830000
H        1.05750000      -0.17110000      -2.09960000
H        2.07750000      -2.80350000      -1.92770000
H        1.35500000      -3.54600000      -0.47380000
H       -0.96750000      -2.31490000       0.33300000
H       -2.03030000      -1.84040000      -0.98640000
H       -1.38950000      -3.50260000      -0.92350000
H       -1.00230000      -1.88150000      -3.19940000
