15
Properties=species:S:1:pos:R:3 gdb_29469=T pbc="F F F"
N        0.01330000       1.34190000       0.12650000
C        0.01720000      -0.02260000       0.04070000
N       -1.05720000      -0.75150000       0.01820000
C       -0.66160000      -2.17290000      -0.00730000
C        0.83730000      -2.12760000      -0.01200000
C        1.24200000      -0.82520000       0.01860000
N        2.60880000      -0.69990000       0.01160000
C        3.02860000      -1.94680000      -0.02120000
N        1.99030000      -2.86140000      -0.03570000
H        0.84180000       1.81690000      -0.19340000
H       -0.86180000       1.79210000      -0.09360000
H       -1.07530000      -2.69330000       0.86650000
H       -1.08370000      -2.66130000      -0.89520000
H        4.06030000      -2.26670000      -0.03670000
H        2.08870000      -3.86260000      -0.05930000
