21
Properties=species:S:1:pos:R:3 gdb_115477=T pbc="F F F"
C       -0.43470000       1.38370000      -0.05590000
C        0.16520000      -0.03160000       0.02800000
C        0.90360000      -0.44530000      -1.20850000
C        2.19720000      -0.72060000      -1.35440000
C        2.47750000      -1.17490000      -2.75810000
O        2.84130000      -2.53230000      -2.73110000
C        3.20530000      -3.04250000      -4.00030000
O        1.26380000      -0.94940000      -3.46170000
C        0.22150000      -0.65140000      -2.53970000
H        0.34720000       2.12950000      -0.22850000
H       -1.16150000       1.46640000      -0.86990000
H       -0.94890000       1.63900000       0.87540000
H        0.84130000      -0.09290000       0.88720000
H       -0.64520000      -0.74900000       0.21810000
H        2.95920000      -0.70500000      -0.58650000
H        3.26430000      -0.60850000      -3.28490000
H        2.36310000      -3.01420000      -4.70210000
H        4.04350000      -2.47610000      -4.43580000
H        3.51800000      -4.07860000      -3.85220000
H       -0.51290000      -1.47170000      -2.49090000
H       -0.31010000       0.24150000      -2.89520000
