20
Properties=species:S:1:pos:R:3 gdb_97390=T pbc="F F F"
C        0.03600000       1.34000000       0.32380000
N       -0.02010000       0.01840000      -0.26500000
C       -1.02990000      -0.68360000      -0.01020000
O       -1.13830000      -1.93760000      -0.51590000
C       -2.33490000      -2.60410000      -0.26590000
C       -2.75150000      -3.02660000       1.11330000
C       -2.51720000      -4.07760000       0.04830000
C       -3.72690000      -4.13540000      -0.89440000
C       -3.50690000      -2.62470000      -1.24980000
H        0.93230000       1.42640000       0.94880000
H        0.12850000       2.09140000      -0.46860000
H       -0.84120000       1.59510000       0.94120000
H       -1.87790000      -0.37990000       0.62070000
H       -1.96460000      -2.96170000       1.85790000
H       -3.75280000      -2.82550000       1.48920000
H       -1.76700000      -4.84730000       0.17580000
H       -3.57940000      -4.79130000      -1.75420000
H       -4.68010000      -4.38560000      -0.41880000
H       -4.32900000      -1.92940000      -1.05200000
H       -3.16890000      -2.49520000      -2.27990000
