18
Properties=species:S:1:pos:R:3 gdb_82666=T pbc="F F F"
C       -0.16530000       1.40550000       0.03870000
N        0.12650000      -0.01810000       0.05460000
C        0.95350000      -0.54050000      -1.05200000
C        2.35760000       0.10850000      -0.87460000
C        2.37520000      -0.73340000       0.40780000
C        1.51480000      -1.84660000      -0.35390000
C        0.74830000      -2.01750000       0.94490000
O        0.35770000      -2.93830000       1.59890000
C        0.98280000      -0.51230000       1.16240000
H        0.71300000       2.06690000       0.11420000
H       -0.69340000       1.64670000      -0.89000000
H       -0.83430000       1.64130000       0.87210000
H        0.43960000      -0.57660000      -2.01230000
H        3.07070000      -0.28310000      -1.60420000
H        2.44580000       1.19600000      -0.82130000
H        3.25800000      -0.96220000       1.00080000
H        1.93110000      -2.64570000      -0.96160000
H        0.86800000      -0.00320000       2.11600000
