19
Properties=species:S:1:pos:R:3 gdb_114229=T pbc="F F F"
O       -0.13790000       1.48190000       0.35840000
C        0.00400000       0.10640000       0.08620000
C       -1.35000000      -0.58070000      -0.11840000
O       -2.13190000      -0.36650000       1.07220000
C       -3.42770000       0.08110000       0.71320000
C       -4.61290000      -0.52080000       1.42830000
C       -4.17940000       0.90370000       1.72090000
C       -3.38930000       0.34270000      -0.74180000
C       -2.20840000      -0.02650000      -1.22650000
H       -0.79930000       1.53870000       1.05910000
H        0.60520000       0.01130000      -0.82500000
H        0.53910000      -0.41560000       0.89590000
H       -1.17180000      -1.66190000      -0.25350000
H       -5.52890000      -0.68720000       0.87130000
H       -4.38930000      -1.27060000       2.17870000
H       -3.67800000       1.08340000       2.66570000
H       -4.79370000       1.72500000       1.36740000
H       -4.22590000       0.75860000      -1.28770000
H       -1.87730000       0.02720000      -2.25520000
