19
Properties=species:S:1:pos:R:3 gdb_39638=T pbc="F F F"
C       -0.00280000       1.31880000      -0.18640000
C        1.50610000       1.48490000       0.06810000
C        1.39650000       0.09620000       0.75910000
O        0.02030000      -0.03820000       0.30720000
C        2.26730000      -1.01410000       0.29110000
C        3.18280000      -1.68730000       0.98400000
C        3.84830000      -2.70740000       0.10750000
O        3.22740000      -2.56720000      -1.16710000
C        2.22660000      -1.55380000      -1.11810000
H       -0.64660000       1.96280000       0.42670000
H       -0.33970000       1.36970000      -1.22750000
H        2.11870000       1.48400000      -0.83490000
H        1.81250000       2.31140000       0.71020000
H        1.43970000       0.16770000       1.85430000
H        3.43190000      -1.54650000       2.02880000
H        4.93420000      -2.54330000       0.01530000
H        3.71050000      -3.73410000       0.48400000
H        1.24090000      -1.97630000      -1.35950000
H        2.44330000      -0.78340000      -1.87550000
