15
Properties=species:S:1:pos:R:3 gdb_12341=T pbc="F F F"
C       -0.09620000       1.50630000       0.07220000
C        0.02220000      -0.02830000      -0.03280000
C        0.84120000      -0.46900000      -1.25870000
N        2.27330000      -0.23860000      -1.10320000
C        2.72950000      -0.28620000       0.06730000
O        2.04570000      -0.55170000       1.23680000
C        0.65990000      -0.56980000       1.23070000
O        0.08920000      -0.95200000       2.20690000
H        0.88660000       1.98500000       0.10540000
H       -0.62950000       1.89320000      -0.80110000
H       -0.65060000       1.79270000       0.96940000
H       -0.98270000      -0.45650000      -0.07600000
H        0.68950000      -1.53810000      -1.46040000
H        0.49660000       0.06730000      -2.14860000
H        3.78360000      -0.14190000       0.28730000
