18
Properties=species:S:1:pos:R:3 gdb_116820=T pbc="F F F"
C       -0.17920000       1.04490000       0.12960000
O        0.17770000      -0.33250000       0.19360000
C        0.56950000      -0.88900000      -0.96380000
N        0.91410000      -2.09900000      -1.01090000
C        1.33120000      -2.63710000      -2.28740000
C        2.65300000      -3.38990000      -2.14020000
O        2.48640000      -4.58850000      -1.38270000
C        2.65540000      -4.51470000      -0.04430000
O        2.47840000      -5.45320000       0.67180000
H        0.67140000       1.66520000      -0.17720000
H       -1.01670000       1.20990000      -0.55840000
H       -0.48330000       1.32840000       1.13740000
H        0.55560000      -0.20780000      -1.83000000
H        0.57790000      -3.35340000      -2.63880000
H        1.45000000      -1.86660000      -3.06950000
H        3.02220000      -3.70310000      -3.12040000
H        3.40770000      -2.74400000      -1.67380000
H        2.98430000      -3.51600000       0.29310000
