17
Properties=species:S:1:pos:R:3 gdb_30290=T pbc="F F F"
C       -0.09580000       1.51980000      -0.03300000
N        0.08690000       0.08150000       0.04820000
C        0.72280000      -0.56100000      -1.13820000
C        1.40890000      -1.88950000      -0.64610000
C        1.56950000      -1.50670000       0.78360000
C        0.80700000      -0.44900000       1.11850000
N        0.82390000      -0.24180000       2.48040000
C        1.58740000      -1.21230000       2.89870000
O        2.06570000      -2.04970000       1.93790000
H        0.84340000       2.06000000      -0.24650000
H       -0.81570000       1.75620000      -0.82250000
H       -0.49510000       1.88220000       0.91700000
H       -0.01790000      -0.73600000      -1.92230000
H        1.49900000       0.10900000      -1.54100000
H        0.74460000      -2.75500000      -0.77660000
H        2.32880000      -2.09120000      -1.20250000
H        1.90180000      -1.41660000       3.90990000
