23
Properties=species:S:1:pos:R:3 gdb_119040=T pbc="F F F"
C        0.40350000      -0.13990000      -1.25150000
C       -0.53250000      -0.29300000      -0.04530000
C        0.18560000      -0.65070000       1.24760000
C        1.04650000       0.43240000       1.87890000
C        0.23330000       1.58090000       2.47170000
O        1.15200000       2.47080000       3.09080000
O       -0.61520000      -1.37220000       2.20830000
C        0.47980000      -2.05910000       1.58960000
C        0.15910000      -3.26620000       0.74390000
H        0.96250000      -1.06230000      -1.43980000
H       -0.16700000       0.09610000      -2.15480000
H        1.13100000       0.66410000      -1.10380000
H       -1.09230000       0.63800000       0.10440000
H       -1.28350000      -1.06070000      -0.24790000
H        1.64270000      -0.00120000       2.68780000
H        1.75270000       0.83660000       1.14460000
H       -0.34190000       2.09680000       1.68700000
H       -0.48610000       1.17230000       3.19620000
H        0.64900000       3.17320000       3.51300000
H        1.32330000      -2.21660000       2.26660000
H       -0.65370000      -3.07930000       0.04020000
H        1.04470000      -3.58030000       0.18060000
H       -0.13840000      -4.10150000       1.38690000
