15
Properties=species:S:1:pos:R:3 gdb_25818=T pbc="F F F"
N        0.07670000       1.36760000       0.20080000
C       -0.02040000       0.01590000       0.02240000
N        1.14030000      -0.66960000      -0.13000000
H        1.00600000      -1.67420000      -0.11020000
H        1.97330000      -0.31150000       0.31060000
C       -1.22060000      -0.68040000       0.00540000
C       -2.56710000      -0.23230000      -0.04430000
N       -3.37960000      -1.27950000      -0.06760000
C       -2.50290000      -2.34600000      -0.03670000
O       -2.97820000      -3.60270000      -0.05160000
N       -1.22350000      -2.07530000       0.00640000
H        0.83950000       1.83530000      -0.26620000
H       -0.78910000       1.88240000       0.19150000
H       -2.94900000       0.78190000      -0.07340000
H       -3.93920000      -3.52030000      -0.08160000
