16
Properties=species:S:1:pos:R:3 gdb_51957=T pbc="F F F"
O        0.04030000       0.98910000       1.01300000
C        0.34330000       1.63610000       0.04920000
C        1.64560000       1.41960000      -0.71170000
O        1.86610000       2.42240000      -1.70820000
C        2.14190000       3.65230000      -1.22500000
O        2.18590000       3.91220000      -0.04430000
C        2.38830000       4.62970000      -2.31780000
C        1.74990000       5.97500000      -2.15600000
N        3.18630000       5.81790000      -1.97920000
H       -0.31970000       2.41800000      -0.38300000
H        2.47440000       1.38010000      -0.00030000
H        1.58940000       0.47390000      -1.25770000
H        2.54110000       4.21350000      -3.30670000
H        1.44370000       6.51100000      -3.04920000
H        1.12830000       6.12210000      -1.27760000
H        3.39350000       5.77440000      -0.98160000
