14
Properties=species:S:1:pos:R:3 gdb_53928=T pbc="F F F"
N       -0.04830000       1.33040000       0.36100000
C        0.07240000       0.03070000      -0.04990000
N        1.09790000      -0.61440000      -0.43150000
C       -1.28780000      -0.72330000      -0.01690000
O       -2.16230000      -0.18590000       0.97360000
C       -1.94820000      -0.54700000      -1.31360000
C       -2.46900000      -0.38650000      -2.38190000
C       -1.05980000      -2.16410000       0.24490000
N       -0.95950000      -3.27970000       0.52400000
H        0.68470000       1.98080000       0.13100000
H       -0.97510000       1.70320000       0.49170000
H        1.93510000      -0.03040000      -0.45980000
H       -1.79140000      -0.40140000       1.83920000
H       -2.93370000      -0.25710000      -3.32890000
