13
Properties=species:S:1:pos:R:3 gdb_9443=T pbc="F F F"
C       -0.11800000       1.55960000       0.08590000
C       -0.03690000       0.03040000      -0.01500000
C        0.83480000      -0.55190000      -1.16050000
O        1.81240000      -1.03650000      -0.18840000
C        1.08360000      -0.58840000       0.87480000
O        1.32740000      -0.65960000       2.03050000
C       -1.34070000      -0.59790000       0.14240000
N       -2.37910000      -1.09240000       0.25550000
H        0.87480000       1.99800000      -0.04590000
H       -0.78750000       1.96000000      -0.67940000
H       -0.49760000       1.84900000       1.06830000
H        0.39880000      -1.37920000      -1.72080000
H        1.28090000       0.18860000      -1.82620000
