19
Properties=species:S:1:pos:R:3 gdb_10559=T pbc="F F F"
C       -0.07730000       1.62880000      -0.12710000
C       -0.06070000       0.10500000      -0.26940000
C       -1.35610000      -0.54690000       0.23910000
C       -1.37120000      -2.05540000       0.10160000
C       -2.63580000      -2.76380000      -0.28860000
N       -1.52200000      -2.69990000      -1.22800000
C       -0.45750000      -2.82970000       0.99620000
O        0.13490000      -2.36270000       1.93710000
H        0.85370000       2.07140000      -0.49380000
H       -0.90350000       2.07440000      -0.69320000
H       -0.19680000       1.92550000       0.92060000
H        0.09650000      -0.16490000      -1.32200000
H        0.78570000      -0.30920000       0.28780000
H       -1.49260000      -0.29690000       1.29760000
H       -2.21680000      -0.12920000      -0.29960000
H       -2.85330000      -3.75540000       0.10010000
H       -3.50840000      -2.13480000      -0.44430000
H       -1.68710000      -1.97740000      -1.92510000
H       -0.37620000      -3.90450000       0.72030000
