18
Properties=species:S:1:pos:R:3 gdb_38173=T pbc="F F F"
C       -0.06880000       1.51230000      -0.17950000
O        1.29870000       1.60470000       0.29920000
C        1.41360000       0.16640000       0.44130000
C        1.79260000      -0.31530000       1.84570000
C        0.99050000      -1.53600000       2.24750000
C       -0.24400000      -1.79320000       1.80490000
C       -0.93960000      -0.89650000       0.84290000
N       -0.72140000      -1.05310000      -0.62840000
C       -0.06210000       0.01670000       0.09200000
H       -0.75520000       2.12950000       0.41150000
H       -0.15450000       1.78100000      -1.24000000
H        2.09680000      -0.24650000      -0.31500000
H        2.86430000      -0.52680000       1.91590000
H        1.59370000       0.50430000       2.54880000
H        1.45810000      -2.21970000       2.95140000
H       -0.77650000      -2.67640000       2.14860000
H       -1.95980000      -0.60730000       1.08510000
H       -0.06630000      -1.81440000      -0.80330000
