16
Properties=species:S:1:pos:R:3 gdb_114167=T pbc="F F F"
O       -0.05180000       1.37970000      -0.25800000
C        0.04860000       0.03270000       0.15790000
C       -1.30680000      -0.64490000       0.09400000
O       -1.85710000      -0.61840000      -1.26800000
C       -2.12800000      -2.01920000      -1.19850000
C       -0.85810000      -2.81210000      -1.07370000
C       -1.44570000      -2.16570000       0.15760000
C       -3.36960000      -2.51450000      -1.69930000
N       -4.37030000      -2.93040000      -2.10460000
H       -0.42200000       1.37000000      -1.14860000
H        0.78260000      -0.52550000      -0.44150000
H        0.40300000       0.04320000       1.19460000
H       -2.01340000      -0.13910000       0.76100000
H       -0.97750000      -3.88970000      -1.11080000
H        0.03330000      -2.42520000      -1.55600000
H       -1.76800000      -2.73450000       1.01810000
