11
Properties=species:S:1:pos:R:3 gdb_130527=T pbc="F F F"
O       -0.08370000       1.28610000       0.00940000
N        1.35550000       1.74670000      -0.00080000
N        2.10020000       0.75970000      -0.01430000
C        1.35360000      -0.41260000      -0.01320000
C        0.00460000      -0.03110000       0.00160000
N       -1.00460000      -0.89200000       0.00640000
C       -0.58710000      -2.16010000      -0.00440000
C        0.77000000      -2.54540000      -0.01930000
N        1.77210000      -1.66640000      -0.02400000
H       -1.36050000      -2.92290000      -0.00130000
H        1.03430000      -3.59790000      -0.02760000
