16
Properties=species:S:1:pos:R:3 gdb_87304=T pbc="F F F"
C        0.10830000       1.50550000      -0.16650000
C        0.07920000       0.01700000       0.05850000
O        1.32490000      -0.68400000       0.11630000
C        0.52650000      -0.66680000       1.29900000
C        1.09140000       0.06940000       2.51190000
C        2.12830000      -0.69370000       3.19610000
C        2.97870000      -1.33230000       3.75310000
C       -0.11340000      -1.93710000       1.61590000
N       -0.65050000      -2.92590000       1.87800000
H        0.90190000       1.99750000       0.39780000
H        0.27730000       1.70760000      -1.22890000
H       -0.85370000       1.94920000       0.10950000
H       -0.68450000      -0.51230000      -0.51330000
H        1.49360000       1.03050000       2.18140000
H        0.26650000       0.28510000       3.20270000
H        3.72960000      -1.89920000       4.24560000
