19
Properties=species:S:1:pos:R:3 gdb_65348=T pbc="F F F"
C       -0.05220000       1.53830000      -0.01160000
C       -0.00440000       0.01870000       0.00710000
C        1.33150000      -0.69340000      -0.19120000
C        0.68460000      -0.71910000       1.15890000
N        1.26340000       0.07650000       2.19840000
C        0.63500000      -0.01110000       3.51590000
C        1.95310000      -0.65390000       3.26210000
C       -1.16700000      -0.63530000      -0.53960000
N       -2.10610000      -1.15620000      -0.97150000
H        0.82020000       1.93930000       0.50540000
H       -0.06450000       1.91030000      -1.04020000
H       -0.94990000       1.90570000       0.49420000
H        1.34850000      -1.60310000      -0.77910000
H        2.19090000      -0.04330000      -0.30900000
H        0.21330000      -1.65790000       1.46020000
H        0.57290000       0.92190000       4.06770000
H       -0.22790000      -0.66530000       3.62430000
H        1.97540000      -1.74020000       3.20080000
H        2.86980000      -0.19810000       3.62400000
