15
Properties=species:S:1:pos:R:3 gdb_55624=T pbc="F F F"
N       -0.00300000       1.35780000       0.11270000
C        0.03680000      -0.00160000      -0.14850000
O        1.01280000      -0.56040000      -0.61220000
N       -1.13170000      -0.66540000       0.18050000
C       -1.15000000      -2.12600000       0.16010000
C       -1.09380000      -2.69680000       1.51400000
C       -1.05230000      -3.13900000       2.62960000
C       -2.31100000      -2.63770000      -0.58080000
C       -3.25960000      -3.05580000      -1.18610000
H        0.75010000       1.86100000      -0.33110000
H       -0.89690000       1.82320000       0.06660000
H       -1.77950000      -0.22210000       0.81340000
H       -0.23000000      -2.39780000      -0.37510000
H       -1.00710000      -3.54040000       3.61200000
H       -4.09390000      -3.43120000      -1.72560000
