21
Properties=species:S:1:pos:R:3 gdb_107704=T pbc="F F F"
C       -0.03140000       1.54180000       0.02300000
C       -0.10390000       0.01300000      -0.07550000
C       -1.50480000      -0.51980000      -0.01640000
N       -2.56690000      -0.23890000      -1.04660000
C       -3.26450000      -1.12700000      -0.05520000
C       -4.69330000      -1.55840000      -0.18900000
C       -1.97530000      -1.99530000       0.14470000
N       -1.94990000      -1.90460000       1.64150000
C       -2.49180000      -0.57790000       1.20170000
H        1.00580000       1.88720000      -0.01570000
H       -0.56980000       2.01880000      -0.80280000
H       -0.46780000       1.89950000       0.96160000
H        0.35690000      -0.32150000      -1.01310000
H        0.46180000      -0.44790000       0.74280000
H       -2.90510000       0.72350000      -0.94950000
H       -4.85900000      -2.04960000      -1.15290000
H       -4.95900000      -2.26300000       0.60720000
H       -5.37490000      -0.70320000      -0.12130000
H       -1.64850000      -2.87070000      -0.41810000
H       -2.69740000      -2.47790000       2.04250000
H       -2.77750000       0.21730000       1.89540000
