19
Properties=species:S:1:pos:R:3 gdb_83448=T pbc="F F F"
C       -0.06770000       1.49000000      -0.24040000
C        0.05940000       0.02850000       0.12310000
N        1.26980000      -0.80330000      -0.09370000
C        2.46840000       0.05370000       0.23030000
C        1.99610000       0.28570000       1.68640000
C        0.75290000      -0.52400000       1.30910000
C        0.12990000      -1.60510000       2.16810000
C        1.12270000      -2.46790000       2.81140000
N        1.92260000      -3.12630000       3.32310000
H        0.72440000       2.11290000       0.17910000
H       -0.05770000       1.61470000      -1.32860000
H       -1.02260000       1.87820000       0.12840000
H       -0.81410000      -0.55070000      -0.17450000
H        3.37170000      -0.55320000       0.15570000
H        2.57850000       0.93070000      -0.41340000
H        2.62400000      -0.22870000       2.41570000
H        1.83070000       1.31180000       2.02670000
H       -0.49400000      -1.15460000       2.95090000
H       -0.52840000      -2.22630000       1.55160000
