19
Properties=species:S:1:pos:R:3 gdb_95650=T pbc="F F F"
C       -0.03200000       1.54200000      -0.13850000
C        0.05760000       0.02830000      -0.04630000
O        0.79080000      -0.44460000      -1.18150000
C        0.66680000      -1.81520000      -1.30290000
O        1.11690000      -2.54870000      -0.15330000
C        0.99460000      -2.02720000       1.09520000
O        1.16650000      -2.73670000       2.04770000
C        0.74360000      -0.52250000       1.21640000
C        2.09240000       0.15310000       1.53610000
H        0.96170000       1.99120000      -0.20250000
H       -0.59460000       1.82910000      -1.03040000
H       -0.54330000       1.94790000       0.73960000
H       -0.96130000      -0.39260000      -0.09780000
H       -0.38120000      -2.10650000      -1.48040000
H        1.29640000      -2.14050000      -2.13290000
H        0.07700000      -0.40220000       2.07640000
H        2.75980000       0.11510000       0.67070000
H        1.94810000       1.19950000       1.81600000
H        2.57320000      -0.36100000       2.37100000
