17
Properties=species:S:1:pos:R:3 gdb_79216=T pbc="F F F"
C       -0.05190000       1.57990000       0.01210000
C        0.08820000       0.07210000       0.05740000
N        1.10970000      -0.56550000      -0.83780000
C        2.37960000      -0.62910000      -0.02440000
C        2.15520000      -0.04170000       1.36670000
C        0.73240000      -0.66700000       1.27050000
C       -0.01860000      -1.00450000       2.44830000
N       -0.63920000      -1.27930000       3.38550000
C        1.31630000      -1.64130000       0.15840000
H        0.89500000       2.09610000       0.18590000
H       -0.41860000       1.88170000      -0.97380000
H       -0.77490000       1.91830000       0.76160000
H       -0.86750000      -0.40430000      -0.18110000
H        3.30090000      -0.70120000      -0.58530000
H        2.76030000      -0.57060000       2.10610000
H        2.22690000       1.03600000       1.52980000
H        1.22260000      -2.70250000      -0.02700000
