23
Properties=species:S:1:pos:R:3 gdb_113069=T pbc="F F F"
C       -0.73560000       1.31180000      -0.11780000
C       -0.17070000      -0.10330000      -0.02380000
C        1.02790000      -0.54620000      -0.93010000
C        1.87560000       0.55920000      -1.53800000
O        2.98090000      -0.06270000      -2.18050000
C        1.66610000      -1.24910000       0.30200000
C        0.63520000      -0.55880000       1.24010000
C        1.21390000       0.53800000       2.11890000
O        2.02510000      -0.09330000       3.10100000
H        0.02760000       2.08300000       0.02480000
H       -1.19680000       1.48290000      -1.09680000
H       -1.51100000       1.47280000       0.63930000
H       -0.99600000      -0.80650000      -0.17720000
H        0.74550000      -1.22100000      -1.74400000
H        1.27630000       1.14250000      -2.25610000
H        2.22070000       1.25830000      -0.75930000
H        3.54740000       0.62710000      -2.53800000
H        1.56790000      -2.33650000       0.27800000
H        2.71450000      -1.00840000       0.49310000
H        0.08690000      -1.24200000       1.89590000
H        1.80860000       1.24510000       1.51840000
H        0.39970000       1.11450000       2.58790000
H        2.42940000       0.59130000       3.64190000
