18
Properties=species:S:1:pos:R:3 gdb_74738=T pbc="F F F"
C        0.02270000       1.48090000       0.05920000
C       -0.05390000      -0.00490000      -0.02100000
C       -0.07330000      -0.81580000      -1.08700000
C       -0.00210000      -2.23440000      -0.54810000
C       -0.85250000      -2.11610000       0.72550000
C        0.00580000      -0.91690000       1.21610000
C        1.37990000      -1.57660000       1.12700000
N        2.36300000      -1.38610000       1.89600000
O        1.34450000      -2.41210000       0.04310000
H        0.94360000       1.79420000       0.56560000
H        0.00330000       1.93800000      -0.93360000
H       -0.81090000       1.88910000       0.64420000
H       -0.02870000      -0.53960000      -2.13200000
H       -0.16670000      -3.06420000      -1.23100000
H       -1.89180000      -1.84690000       0.53420000
H       -0.79030000      -3.00120000       1.36490000
H       -0.20430000      -0.46200000       2.18080000
H        3.16300000      -1.94760000       1.59620000
