13
Properties=species:S:1:pos:R:3 gdb_21501=T pbc="F F F"
N       -0.09690000       1.31870000       0.00820000
C        0.04490000      -0.03400000       0.00160000
O        1.12150000      -0.60540000      -0.00940000
C       -1.23800000      -0.78790000       0.00940000
N       -2.42330000      -0.17290000       0.02110000
N       -3.31530000      -1.17230000       0.02470000
C       -2.73850000      -2.40340000       0.01580000
C       -1.37920000      -2.19320000       0.00570000
H        0.72950000       1.89100000       0.00230000
H       -1.01070000       1.73870000       0.01610000
H       -4.29730000      -0.95200000       0.03330000
H       -3.33200000      -3.30370000       0.01740000
H       -0.58660000      -2.92120000      -0.00320000
