20
Properties=species:S:1:pos:R:3 gdb_8433=T pbc="F F F"
C       -0.10310000       1.57560000       0.02730000
C        0.00520000       0.05130000       0.00740000
C       -1.35520000      -0.58860000      -0.27570000
C        1.13130000      -0.57920000      -0.89760000
C        1.70680000      -1.30210000       0.32570000
C        2.13860000      -0.27670000       1.35150000
C        0.68320000      -0.62860000       1.22220000
O       -0.02420000      -1.20450000       2.26740000
H        0.85970000       2.05290000       0.23380000
H       -0.46010000       1.95510000      -0.93710000
H       -0.81390000       1.90860000       0.79310000
H       -1.73850000      -0.26220000      -1.24890000
H       -1.28630000      -1.68060000      -0.28160000
H       -2.08700000      -0.31160000       0.49000000
H        0.72640000      -1.24640000      -1.66220000
H        1.81020000       0.13420000      -1.37730000
H        2.07840000      -2.31880000       0.35010000
H        2.60790000      -0.69550000       2.23650000
H        2.53940000       0.68590000       1.04060000
H       -0.07510000      -0.56620000       2.98700000
