17
Properties=species:S:1:pos:R:3 gdb_82717=T pbc="F F F"
O        0.04130000       1.44440000       0.05680000
C        0.00350000       0.04620000      -0.05250000
C       -1.41070000      -0.56310000      -0.01070000
C       -2.40610000       0.17060000      -0.93790000
C       -1.79600000      -0.54780000      -2.18030000
C       -1.00480000      -1.50290000      -1.20210000
C        0.29500000      -0.63550000      -1.43000000
C       -0.44670000       0.05840000      -2.57530000
O       -0.07510000       0.69860000      -3.51740000
H        0.94330000       1.74680000      -0.09240000
H        0.63300000      -0.44000000       0.70730000
H       -1.77400000      -0.89710000       0.96060000
H       -3.42530000      -0.18470000      -0.76730000
H       -2.39630000       1.26270000      -0.92550000
H       -2.46450000      -0.85760000      -2.98370000
H       -1.03490000      -2.58740000      -1.22280000
H        1.30400000      -1.00220000      -1.62010000
