18
Properties=species:S:1:pos:R:3 gdb_22565=T pbc="F F F"
C       -0.13340000       1.41380000      -0.05850000
C       -0.00150000      -0.10180000      -0.00260000
C        1.16920000      -0.66740000      -0.90100000
O        1.64090000       0.05180000      -2.00250000
C        1.99350000      -0.72210000       0.36950000
N        3.23450000      -0.52080000       0.52430000
O        3.55570000      -0.43230000       1.90380000
C        0.76730000      -0.62680000       1.26370000
O        0.83140000       0.24570000       2.36060000
H        0.81570000       1.91200000       0.16450000
H       -0.46100000       1.72870000      -1.05320000
H       -0.85760000       1.76550000       0.68010000
H       -0.96660000      -0.58310000      -0.17470000
H        0.92240000      -1.67040000      -1.26580000
H        2.16040000       0.79310000      -1.67310000
H        4.49170000      -0.20700000       1.88720000
H        0.40520000      -1.62240000       1.56150000
H        1.73500000       0.20390000       2.69720000
