17
Properties=species:S:1:pos:R:3 gdb_5622=T pbc="F F F"
C        0.04900000       1.41800000       0.05900000
N       -0.11040000      -0.02170000      -0.03580000
C        0.57790000      -0.67220000      -1.05830000
C        1.20790000      -0.13470000      -2.14380000
O        1.69380000      -1.13340000      -2.94740000
C        1.37590000      -2.30490000      -2.34860000
C        0.69180000      -2.10640000      -1.19130000
C        0.14940000      -3.13010000      -0.24560000
H        1.10060000       1.74010000       0.13860000
H       -0.37810000       1.89120000      -0.83240000
H       -0.49870000       1.78790000       0.92890000
H       -0.01140000      -0.48830000       0.85530000
H        1.37600000       0.87050000      -2.48760000
H        1.69660000      -3.19930000      -2.85880000
H        0.61300000      -3.05970000       0.74730000
H       -0.93120000      -3.01070000      -0.10340000
H        0.32910000      -4.14290000      -0.61600000
