13
Properties=species:S:1:pos:R:3 gdb_129939=T pbc="F F F"
N       -0.00290000       1.43670000       0.16990000
C        0.02590000       0.04910000       0.03650000
C       -1.02790000      -0.82050000      -0.00310000
O       -0.60040000      -2.16760000      -0.03930000
C        0.71740000      -2.06120000      -0.03570000
C        1.20590000      -0.78720000       0.01220000
C        2.60540000      -1.02370000       0.01560000
N        2.89270000      -2.30840000      -0.02970000
O        1.63860000      -3.00540000      -0.06340000
H        0.71540000       1.90440000      -0.36700000
H       -0.90580000       1.84360000      -0.03540000
H       -2.09550000      -0.68930000       0.00460000
H        3.43550000      -0.33180000       0.05100000
