13
Properties=species:S:1:pos:R:3 gdb_9471=T pbc="F F F"
O        0.02890000       1.47730000       0.07660000
C       -0.01270000       0.10230000       0.00690000
C       -1.42480000      -0.57470000      -0.09680000
N       -0.94710000      -1.25510000      -1.30180000
C        0.23710000      -0.57020000      -1.41440000
O        1.08870000      -0.51210000      -2.25200000
C        0.86310000      -0.52720000       1.06380000
O        1.55010000       0.15160000       1.78770000
H        0.69090000       1.68770000       0.75690000
H       -1.72110000      -1.24600000       0.71550000
H       -2.19840000       0.17820000      -0.26990000
H       -1.44560000      -1.80360000      -1.98730000
H        0.84430000      -1.63260000       1.12690000
