19
Properties=species:S:1:pos:R:3 gdb_75788=T pbc="F F F"
C       -0.66730000       1.19150000      -0.07540000
C        0.10840000      -0.11560000      -0.06720000
C        1.46930000      -0.18490000      -0.77840000
O        1.90590000       0.37510000      -1.74200000
C        2.07450000      -1.06440000       0.31370000
C        0.87780000      -0.65740000       1.22670000
C        1.20670000       0.41880000       2.25940000
C        0.13760000      -1.81650000       1.85210000
O        0.24640000      -2.96700000       1.50940000
H       -0.07450000       2.02070000       0.32000000
H       -0.93900000       1.44530000      -1.10440000
H       -1.58960000       1.11810000       0.50900000
H       -0.51350000      -0.93110000      -0.45940000
H        2.02080000      -2.12870000       0.06130000
H        3.08420000      -0.81700000       0.64900000
H        1.70760000       1.27380000       1.79610000
H        0.30360000       0.78920000       2.75620000
H        1.87680000       0.02300000       3.02980000
H       -0.57090000      -1.52970000       2.66360000
