20
Properties=species:S:1:pos:R:3 gdb_59496=T pbc="F F F"
C       -0.25590000      -2.81580000       2.05110000
C       -0.46230000      -1.31060000       1.87950000
O        0.72840000      -0.67360000       1.40260000
C       -1.62880000      -1.01200000       0.95760000
C       -2.99920000      -0.73370000       1.47760000
N       -2.22070000       0.31830000       0.83690000
C       -1.68510000       1.45230000       1.61370000
C       -1.84260000       1.42140000       3.06960000
C       -2.00380000       1.40870000       4.26210000
H        0.61890000      -3.00600000       2.67840000
H       -1.13050000      -3.28320000       2.51420000
H       -0.09250000      -3.30010000       1.08020000
H       -0.63880000      -0.85410000       2.85690000
H        0.91670000      -1.02560000       0.52490000
H       -1.54420000      -1.51810000      -0.00790000
H       -3.87910000      -1.06780000       0.93360000
H       -3.11680000      -0.69190000       2.55870000
H       -0.62270000       1.54240000       1.36530000
H       -2.18450000       2.35390000       1.23830000
H       -2.13040000       1.40580000       5.31660000
