12
Properties=species:S:1:pos:R:3 gdb_129012=T pbc="F F F"
N        0.00610000       1.30200000       0.00940000
N        1.28810000       1.77740000      -0.00030000
N        2.10970000       0.78510000      -0.01380000
C        1.37220000      -0.37960000      -0.01330000
C        0.00710000      -0.05310000       0.00170000
N       -1.00390000      -0.92070000       0.00660000
C       -0.57440000      -2.18130000      -0.00470000
N        0.69740000      -2.63360000      -0.01960000
C        1.68110000      -1.73970000      -0.02400000
H       -0.76650000       1.94870000       0.02060000
H       -1.34470000      -2.94750000      -0.00160000
H        2.70470000      -2.10530000      -0.03600000
