22
Properties=species:S:1:pos:R:3 gdb_8405=T pbc="F F F"
C       -0.06140000       1.51810000       0.04390000
C       -0.02050000       0.00170000       0.02640000
C       -1.26460000      -0.65180000      -0.54510000
C        1.31510000      -0.66920000      -0.23010000
C        0.70120000      -0.70220000       1.14540000
C        1.33130000      -0.10750000       2.41560000
C        1.22320000      -1.51490000       3.07270000
C        0.29630000      -1.97400000       1.90900000
H        0.85090000       1.94230000       0.47350000
H       -0.16940000       1.91980000      -0.97080000
H       -0.90940000       1.88530000       0.63490000
H       -1.42590000      -0.34620000      -1.58590000
H       -1.19270000      -1.74320000      -0.52700000
H       -2.15870000      -0.36780000       0.02340000
H        1.32390000      -1.58900000      -0.80880000
H        2.18460000      -0.03670000      -0.38740000
H        2.33580000       0.31490000       2.32220000
H        0.68970000       0.63490000       2.90220000
H        2.17870000      -2.04500000       3.07390000
H        0.80380000      -1.55590000       4.08040000
H       -0.76180000      -1.98270000       2.19170000
H        0.53480000      -2.93310000       1.44050000
