16
Properties=species:S:1:pos:R:3 gdb_57010=T pbc="F F F"
N       -0.01280000       1.46910000       0.04430000
C        0.02550000       0.01020000      -0.00200000
C        0.71870000      -0.52780000      -1.19500000
N        1.24990000      -0.90300000      -2.15080000
C        0.65640000      -0.52340000       1.29210000
C        0.79270000      -2.06480000       1.40970000
N        2.23570000      -2.30950000       1.56870000
C        2.78790000      -1.17430000       1.51900000
O        2.02590000      -0.05500000       1.36940000
H        0.93790000       1.82330000       0.10360000
H       -0.41770000       1.84050000      -0.80940000
H       -1.00740000      -0.35960000      -0.03140000
H        0.10820000      -0.07020000       2.12220000
H        0.24750000      -2.46230000       2.27040000
H        0.42960000      -2.58680000       0.51730000
H        3.85170000      -0.98070000       1.58960000
