16
Properties=species:S:1:pos:R:3 gdb_33887=T pbc="F F F"
N        0.09060000      -1.08940000      -0.03500000
C        0.06110000       0.06770000      -0.00080000
C       -0.00610000       1.49480000       0.04050000
N        0.32140000       2.30220000      -1.16910000
C        1.18870000       2.39000000       0.01770000
C        0.74500000       3.41970000       1.09240000
C       -0.72940000       3.71810000       0.71900000
C       -0.85480000       2.23050000       1.12820000
N        0.17010000       2.54930000       2.18270000
H        0.75730000       1.69520000      -1.86380000
H        2.20450000       2.01350000      -0.02120000
H        1.46150000       4.18780000       1.38060000
H       -1.19560000       4.35990000       1.46360000
H       -0.96880000       4.00760000      -0.29940000
H       -1.78450000       1.75700000       1.43900000
H        0.76510000       1.75010000       2.41280000
