19
Properties=species:S:1:pos:R:3 gdb_99851=T pbc="F F F"
C        0.12190000       1.57770000      -0.04400000
C        0.04800000       0.04500000       0.04640000
N        0.64730000      -0.51970000       1.25580000
C       -1.40630000      -0.47200000      -0.01430000
O       -2.08950000       0.01780000       1.12410000
C       -2.18490000      -0.05090000      -1.28250000
O       -3.53450000      -0.47100000      -1.17470000
C       -1.41560000      -1.96250000       0.00070000
N       -1.54080000      -3.10940000      -0.07530000
H        1.15770000       1.89830000       0.10430000
H       -0.19940000       1.95970000      -1.01870000
H       -0.49700000       2.03780000       0.73080000
H        0.57520000      -0.39130000      -0.81150000
H        1.61490000      -0.22470000       1.33610000
H        0.15540000      -0.16450000       2.07080000
H       -3.03250000      -0.09950000       0.93840000
H       -2.21230000       1.03920000      -1.33310000
H       -1.69670000      -0.44060000      -2.18510000
H       -3.55540000      -1.43200000      -1.26790000
