17
Properties=species:S:1:pos:R:3 gdb_19178=T pbc="F F F"
C       -0.04840000       1.46590000      -0.11070000
N       -0.06560000       0.00810000       0.00950000
C       -1.15210000      -0.70940000       0.79440000
C       -0.19460000      -1.94760000       0.70650000
O        0.03650000      -2.51710000      -0.53070000
C        0.66830000      -0.70770000       1.13400000
C       -0.44990000      -0.39570000       2.15450000
O       -0.46160000       0.88920000       2.71620000
H       -0.22840000       2.01740000       0.81490000
H        0.92700000       1.75940000      -0.51420000
H       -0.80390000       1.75080000      -0.85170000
H       -2.20640000      -0.64010000       0.51890000
H       -0.32970000      -2.73730000       1.44600000
H        0.14420000      -1.74490000      -1.11330000
H        1.74960000      -0.63470000       1.25910000
H       -0.59490000      -1.16240000       2.93160000
H       -1.28920000       0.99860000       3.19540000
