19
Properties=species:S:1:pos:R:3 gdb_108526=T pbc="F F F"
O        0.06440000       1.34630000      -0.05690000
C        0.01700000      -0.03840000       0.23010000
C       -1.39610000      -0.55860000       0.04800000
C       -2.42370000      -0.06930000       1.08730000
O       -2.83840000      -1.23870000       1.78290000
C       -2.87200000      -2.29910000       0.83700000
C       -1.65360000      -2.07720000      -0.07770000
C       -1.91770000      -1.76420000      -1.56300000
O       -1.81720000      -0.33910000      -1.33380000
H       -0.31020000       1.44400000      -0.94140000
H        0.70720000      -0.60830000      -0.41260000
H        0.33980000      -0.16700000       1.26900000
H       -2.01210000       0.63050000       1.81760000
H       -3.26310000       0.40910000       0.56100000
H       -2.84320000      -3.23950000       1.39260000
H       -3.80550000      -2.27020000       0.25060000
H       -0.82110000      -2.74670000       0.14200000
H       -1.14170000      -2.11710000      -2.25230000
H       -2.90190000      -2.04880000      -1.95350000
