22
Properties=species:S:1:pos:R:3 gdb_121262=T pbc="F F F"
C       -0.14280000       1.51560000      -0.00340000
C       -0.08980000       0.00690000       0.16930000
O       -1.36850000      -0.52180000      -0.12940000
C       -1.43630000      -1.93210000      -0.09510000
C       -1.43450000      -2.54630000       1.32910000
C       -2.35430000      -3.77840000       1.19790000
N       -3.28670000      -3.54590000       0.07330000
C       -3.96910000      -2.24670000       0.13770000
C       -2.74980000      -2.40720000      -0.69370000
H        0.83200000       1.96010000       0.21860000
H       -0.41910000       1.77420000      -1.02950000
H       -0.88520000       1.95250000       0.67060000
H        0.66650000      -0.43370000      -0.50260000
H        0.20630000      -0.25030000       1.19910000
H       -0.60330000      -2.34900000      -0.68590000
H       -0.43500000      -2.81360000       1.67950000
H       -1.83840000      -1.80550000       2.02600000
H       -1.77110000      -4.67170000       0.94920000
H       -2.91420000      -3.99650000       2.11280000
H       -4.94350000      -2.22720000      -0.34080000
H       -3.90090000      -1.65310000       1.04540000
H       -2.82740000      -2.46170000      -1.77520000
