17
Properties=species:S:1:pos:R:3 gdb_15949=T pbc="F F F"
O        0.01260000       1.42960000      -0.25290000
C        0.06450000       0.07980000       0.17400000
C       -1.30930000      -0.55040000       0.06980000
C       -2.31600000      -0.47950000       1.23330000
O       -2.65590000      -1.87960000       1.07830000
C       -1.67710000      -2.05950000       0.03770000
C       -2.26120000      -1.83180000      -1.36780000
N       -1.89940000      -0.38030000      -1.28910000
H       -0.34700000       1.39320000      -1.14950000
H        0.77930000      -0.50320000      -0.42860000
H        0.42300000       0.08310000       1.20850000
H       -1.86650000      -0.28640000       2.21650000
H       -3.18030000       0.18280000       1.09720000
H       -1.00640000      -2.90130000       0.22440000
H       -1.73330000      -2.33800000      -2.18380000
H       -3.33030000      -2.05470000      -1.43440000
H       -2.70110000       0.24220000      -1.30750000
