10
Properties=species:S:1:pos:R:3 gdb_21848=T pbc="F F F"
O       -0.04220000      -0.01190000       0.13320000
C       -0.03250000       1.15920000      -0.04390000
O        1.09260000       1.90800000       0.27080000
C        1.02260000       3.25060000       0.16430000
N       -0.06720000       3.95730000       0.29040000
O        0.33730000       5.25460000       0.12270000
N        1.68420000       5.33920000      -0.08970000
C        2.12730000       4.11520000      -0.07010000
H       -0.83930000       1.77750000      -0.46210000
H        3.16880000       3.87710000      -0.21370000
