11
Properties=species:S:1:pos:R:3 gdb_25550=T pbc="F F F"
O        0.05850000      -0.00540000       0.15150000
C        0.22830000       1.12860000      -0.13520000
O        0.57470000       2.07140000       0.82680000
C        0.79130000       3.32690000       0.40970000
C        1.78430000       3.91650000      -0.24960000
O        1.47730000       5.26050000      -0.37200000
C        0.26980000       5.46940000       0.23690000
O       -0.30130000       6.50260000       0.32760000
O       -0.17140000       4.25790000       0.72540000
H        0.16150000       1.58530000      -1.13680000
H        2.71840000       3.56890000      -0.65100000
