19
Properties=species:S:1:pos:R:3 gdb_126445=T pbc="F F F"
C        0.03720000       1.55760000       0.12080000
C       -0.09190000       0.03490000      -0.06730000
C        0.68370000      -0.49010000      -1.23350000
N        0.12760000      -0.75530000      -2.41640000
N        1.13830000      -1.17520000      -3.15830000
N        2.33890000      -1.21260000      -2.56690000
C        2.07080000      -0.78100000      -1.33410000
N        3.02890000      -0.71480000      -0.33790000
C        4.42570000      -0.86380000      -0.71850000
H        1.08060000       1.86010000       0.26470000
H       -0.33960000       2.08830000      -0.75830000
H       -0.53050000       1.89290000       0.99440000
H        0.24280000      -0.47570000       0.84470000
H       -1.14480000      -0.22740000      -0.20720000
H        1.01110000      -1.47970000      -4.10780000
H        2.86270000       0.02980000       0.32230000
H        5.04460000      -0.79540000       0.17930000
H        4.57510000      -1.84770000      -1.17000000
H        4.76220000      -0.11090000      -1.44630000
