13
Properties=species:S:1:pos:R:3 gdb_21064=T pbc="F F F"
C        0.03400000       1.47290000       0.00970000
N       -0.01860000       0.01550000       0.00230000
N       -0.00380000      -0.58170000      -1.18800000
C        0.02090000      -1.88450000      -1.20980000
C        0.04310000      -2.72260000      -0.01300000
O        0.06480000      -3.94590000      -0.01970000
C        0.03540000      -1.89750000       1.19310000
N        0.01050000      -0.59460000       1.18570000
H        1.07210000       1.82050000       0.00230000
H       -0.47640000       1.83870000      -0.88030000
H       -0.46030000       1.82860000       0.91280000
H        0.02380000      -2.35010000      -2.19080000
H        0.04990000      -2.37380000       2.16880000
