19
Properties=species:S:1:pos:R:3 gdb_105765=T pbc="F F F"
N        0.10110000       1.41120000      -0.11150000
C        0.05210000      -0.03800000      -0.00890000
C        0.80420000      -0.50860000       1.24040000
C        0.85670000      -2.06400000       1.38950000
C        2.36590000      -2.37680000       1.51880000
C        2.97380000      -1.00450000       1.82870000
O        2.15880000      -0.08290000       1.10790000
C        0.22280000       0.09750000       2.46450000
N       -0.21300000       0.51480000       3.45000000
H        1.06200000       1.71030000      -0.24060000
H       -0.43060000       1.73100000      -0.91310000
H       -0.99340000      -0.35500000       0.07380000
H        0.50060000      -0.58430000      -0.85680000
H        0.29330000      -2.38750000       2.26570000
H        0.41330000      -2.54140000       0.51260000
H        2.57760000      -3.11620000       2.29410000
H        2.76150000      -2.75540000       0.57270000
H        2.93770000      -0.78420000       2.90570000
H        4.00040000      -0.87740000       1.47890000
