18
Properties=species:S:1:pos:R:3 gdb_39570=T pbc="F F F"
C        0.04030000       1.58400000       0.00890000
N        1.47390000       1.92840000      -0.11480000
C        2.12390000       0.84220000       0.02160000
N        1.38350000      -0.32300000       0.17050000
C        1.78170000      -1.50510000       0.76470000
N        1.01480000      -2.39850000       1.24820000
C       -0.42300000      -2.12510000       1.26220000
C       -0.79330000      -0.63110000       1.21630000
C       -0.04350000       0.03160000       0.06390000
H       -0.35930000       2.05320000       0.91700000
H       -0.51670000       1.99350000      -0.83790000
H        3.20810000       0.77790000       0.02340000
H        2.86290000      -1.64940000       0.78680000
H       -0.88640000      -2.65470000       0.41770000
H       -0.83750000      -2.58250000       2.16690000
H       -1.87400000      -0.50380000       1.09860000
H       -0.50420000      -0.15020000       2.15870000
H       -0.42500000      -0.36420000      -0.88610000
