15
Properties=species:S:1:pos:R:3 gdb_133222=T pbc="F F F"
C        0.02350000       1.45070000       0.17430000
N        0.00630000       0.01130000      -0.03370000
C       -1.17150000      -0.69190000      -0.07820000
C       -1.18100000      -2.01590000      -0.34920000
F       -2.33380000      -2.67100000      -0.37340000
C        0.04560000      -2.74260000      -0.61030000
N        0.05070000      -4.00490000      -0.86920000
C        1.20080000      -1.84480000      -0.53060000
N        1.18960000      -0.57220000      -0.27040000
H        1.05050000       1.73720000       0.39520000
H       -0.31690000       1.98800000      -0.71860000
H       -0.62000000       1.71800000       1.01740000
H       -2.08150000      -0.14050000       0.11960000
H        1.00970000      -4.32540000      -1.02060000
H        2.18760000      -2.26730000      -0.70370000
