21
Properties=species:S:1:pos:R:3 gdb_61600=T pbc="F F F"
C        0.21710000       1.61600000      -0.03060000
C        0.03390000       0.08660000       0.03380000
C        0.59250000      -0.64720000      -1.21280000
C       -0.12560000      -0.29460000      -2.49970000
C        0.37140000       0.81760000      -3.40960000
C        0.49230000      -0.62570000      -3.82780000
O        1.74310000      -1.25190000      -3.79930000
C        0.64250000      -0.45490000       1.24860000
C        1.16560000      -0.89680000       2.23720000
H        1.27890000       1.87290000      -0.09810000
H       -0.29440000       2.02760000      -0.90380000
H       -0.18810000       2.09070000       0.86680000
H       -1.04550000      -0.12000000       0.08230000
H        1.66190000      -0.43870000      -1.31000000
H        0.50890000      -1.72600000      -1.03870000
H       -1.20570000      -0.41830000      -2.45520000
H       -0.34710000       1.45520000      -3.91380000
H        1.29150000       1.31250000      -3.11580000
H       -0.17380000      -0.98110000      -4.61420000
H        2.26740000      -0.90060000      -4.52630000
H        1.61680000      -1.29070000       3.11370000
