20
Properties=species:S:1:pos:R:3 gdb_88084=T pbc="F F F"
C       -0.03080000       1.53660000      -0.09920000
C       -0.04880000       0.04460000       0.11740000
O        1.18610000      -0.66510000      -0.06490000
C        0.60400000      -0.62720000       1.24800000
C        1.39270000       0.05230000       2.36520000
C        1.85610000      -1.14040000       3.24100000
N        0.94460000      -2.28140000       3.00410000
C       -0.47340000      -1.93830000       3.14800000
C        0.15610000      -1.95200000       1.79970000
H        0.83030000       2.00070000       0.38640000
H        0.01440000       1.76490000      -1.16920000
H       -0.94460000       1.98990000       0.30060000
H       -0.90660000      -0.46560000      -0.32760000
H        2.23160000       0.62130000       1.96250000
H        0.75740000       0.74680000       2.92400000
H        2.85740000      -1.46450000       2.94090000
H        1.88750000      -0.90210000       4.30820000
H       -1.11050000      -2.76450000       3.44970000
H       -0.74690000      -0.97890000       3.58210000
H       -0.04220000      -2.74860000       1.08940000
