19
Properties=species:S:1:pos:R:3 gdb_106394=T pbc="F F F"
O       -0.01190000       1.42150000      -0.06460000
C       -0.00440000       0.00100000      -0.02380000
C       -1.43100000      -0.48180000      -0.03030000
C       -2.51520000       0.04430000       0.98360000
C       -3.48960000      -0.55530000      -0.09040000
C       -2.44740000      -0.08570000      -1.13990000
C       -3.14540000      -2.05340000       0.07030000
O       -2.35920000      -2.63570000      -0.98450000
C       -1.68540000      -2.00290000       0.11530000
H        0.89930000       1.72660000      -0.09830000
H        0.52820000      -0.42070000      -0.89190000
H        0.50690000      -0.36630000       0.88260000
H       -2.52840000      -0.39730000       1.98560000
H       -2.54250000       1.13390000       1.04390000
H       -4.54030000      -0.27370000      -0.14560000
H       -2.46730000       0.99500000      -1.27980000
H       -2.39940000      -0.61260000      -2.09130000
H       -3.76580000      -2.73800000       0.63880000
H       -1.04910000      -2.63960000       0.72240000
