18
Properties=species:S:1:pos:R:3 gdb_25742=T pbc="F F F"
C       -0.06370000       1.53370000      -0.02210000
C        0.03410000       0.01380000      -0.01620000
O        1.12830000      -0.52800000      -0.03360000
C       -1.23080000      -0.73300000       0.01100000
C       -1.36290000      -2.12240000       0.01980000
C       -0.34560000      -3.21520000       0.00900000
N       -2.69950000      -2.39160000       0.04460000
C       -3.43890000      -1.22620000       0.05250000
C       -2.55720000      -0.18300000       0.03220000
H        0.94250000       1.95320000      -0.04340000
H       -0.62560000       1.88360000      -0.89480000
H       -0.59190000       1.89240000       0.86790000
H       -0.41410000      -3.83470000       0.91200000
H       -0.48010000      -3.87840000      -0.85450000
H        0.64860000      -2.77380000      -0.03700000
H       -3.08790000      -3.31990000       0.05530000
H       -4.51620000      -1.25240000       0.07120000
H       -2.81970000       0.86300000       0.03180000
