18
Properties=species:S:1:pos:R:3 gdb_17483=T pbc="F F F"
C       -0.00110000       1.50540000       0.02750000
C       -0.02200000      -0.00810000       0.02870000
C        0.26260000      -0.75040000      -1.32480000
C       -0.91040000      -1.68130000      -1.02610000
C       -0.83430000      -2.11610000       0.42380000
O        0.41210000      -2.06590000       1.08690000
C        0.79190000      -0.68650000       1.13620000
C       -1.38330000      -0.77060000       0.11640000
H        1.01220000       1.88490000      -0.14770000
H       -0.64700000       1.90840000      -0.75890000
H       -0.34730000       1.90900000       0.98600000
H        0.05670000      -0.10190000      -2.18060000
H        1.25290000      -1.20410000      -1.44370000
H       -1.50570000      -2.22170000      -1.75370000
H       -1.46610000      -2.93110000       0.75580000
H        1.87360000      -0.62070000       0.97450000
H        0.55480000      -0.25910000       2.12400000
H       -2.35530000      -0.37360000       0.37930000
