14
Properties=species:S:1:pos:R:3 gdb_12955=T pbc="F F F"
N       -0.05030000       1.46200000      -0.16600000
C       -0.06120000       0.03360000      -0.02430000
C       -0.46730000      -0.73620000       1.18590000
O       -1.50060000       0.01210000       1.88350000
C       -2.37660000      -0.15430000       0.80600000
O       -3.53470000       0.10520000       0.77460000
C       -1.34080000      -0.81400000      -0.07800000
N       -1.51350000      -1.82040000      -1.05330000
H       -0.65750000       1.88250000       0.53280000
H        0.88530000       1.81220000       0.01920000
H        0.71550000      -0.45610000      -0.60750000
H        0.04690000      -1.50670000       1.74370000
H       -2.28500000      -2.43810000      -0.82350000
H       -1.69450000      -1.42070000      -1.96810000
