18
Properties=species:S:1:pos:R:3 gdb_59227=T pbc="F F F"
C        0.53230000       0.10620000      -1.53810000
C        0.10400000       0.09110000      -0.07060000
O        0.10660000       1.38630000       0.51030000
C       -1.27520000      -0.55150000       0.10100000
N       -1.44730000      -2.01410000      -0.25250000
C       -0.69810000      -2.77270000       0.74660000
C       -2.05050000      -2.27540000       1.12890000
C       -1.94640000      -0.81540000       1.47310000
O       -2.40830000      -0.12280000       2.33080000
H        1.52330000       0.55690000      -1.63630000
H        0.55940000      -0.90750000      -1.94950000
H       -0.17460000       0.69100000      -2.13950000
H        0.84810000      -0.46270000       0.51090000
H       -0.54190000       1.92840000       0.04690000
H       -2.00060000       0.01430000      -0.50110000
H       -0.62310000      -3.83110000       0.51680000
H        0.18510000      -2.34970000       1.21580000
H       -2.89500000      -2.93370000       1.29570000
