14
Properties=species:S:1:pos:R:3 gdb_33301=T pbc="F F F"
N        0.06790000      -3.74400000      -0.04420000
C        0.05070000      -2.58150000      -0.03050000
C        0.03090000      -1.21930000      -0.01470000
C        0.02030000      -0.00760000      -0.00430000
C       -0.01030000       1.40030000       0.02540000
C        0.27970000       2.29260000      -1.18390000
C        1.11740000       2.45360000       0.03090000
O        0.47110000       3.24430000       1.01320000
C       -0.60210000       2.27570000       1.13970000
H        0.74340000       1.76870000      -2.01270000
H       -0.43320000       3.06720000      -1.45190000
H        2.19360000       2.33860000       0.08420000
H       -1.58930000       2.71340000       0.95860000
H       -0.56960000       1.79330000       2.12060000
