16
Properties=species:S:1:pos:R:3 gdb_66045=T pbc="F F F"
O       -0.05140000       1.44790000       0.02920000
C        0.02320000       0.04290000      -0.00400000
C        0.22800000      -0.59760000       1.40510000
C       -1.31180000      -0.67910000       1.55710000
C       -1.43850000      -0.54420000       0.00600000
C       -2.50630000       0.24100000      -0.56750000
C       -3.41150000       0.88190000      -1.02980000
C        0.91340000      -0.41940000      -1.07600000
N        1.63520000      -0.78900000      -1.90020000
H        0.83480000       1.79590000       0.18260000
H        0.69970000      -1.58070000       1.34050000
H        0.78010000       0.02470000       2.11180000
H       -1.72860000      -1.58430000       1.99900000
H       -1.72260000       0.19650000       2.06030000
H       -1.40760000      -1.53780000      -0.45190000
H       -4.20410000       1.45500000      -1.44340000
