14
Properties=species:S:1:pos:R:3 gdb_5376=T pbc="F F F"
C       -0.16070000       1.43360000       0.07100000
N       -0.13900000      -0.01860000       0.07050000
C        0.65950000      -0.61850000       0.84680000
O        1.51610000       0.07600000       1.70000000
C        2.34810000      -0.62830000       2.50640000
C        2.37720000      -1.96850000       2.51410000
N        1.54980000      -2.72670000       1.68940000
C        0.75360000      -2.07580000       0.91700000
H        0.81810000       1.85740000      -0.19180000
H       -0.89670000       1.78130000      -0.65670000
H       -0.42710000       1.83750000       1.05730000
H        2.96370000       0.01620000       3.12140000
H        3.05080000      -2.50730000       3.16760000
H        0.08570000      -2.61810000       0.25230000
