20
Properties=species:S:1:pos:R:3 gdb_61276=T pbc="F F F"
C        0.03670000       1.60310000      -0.05120000
C        0.02490000       0.07190000      -0.02250000
C        0.74940000      -0.45460000       1.23540000
C        0.73600000      -1.90760000       1.36090000
C        0.69060000      -3.10550000       1.45450000
N       -1.33870000      -0.45670000      -0.04450000
C       -2.10120000      -0.42060000      -1.17930000
C       -3.39740000      -1.21500000      -1.11010000
O       -1.76620000       0.19690000      -2.17540000
H        1.06610000       1.97660000      -0.05700000
H       -0.46790000       1.95540000      -0.95130000
H       -0.47640000       2.01080000       0.82640000
H        0.55070000      -0.29770000      -0.91180000
H        1.78300000      -0.09170000       1.21100000
H        0.28820000      -0.00730000       2.12650000
H        0.67320000      -4.16380000       1.54090000
H       -1.56810000      -1.15070000       0.65030000
H       -3.25010000      -2.18420000      -1.59820000
H       -3.73960000      -1.39090000      -0.08680000
H       -4.16780000      -0.67770000      -1.66530000
