18
Properties=species:S:1:pos:R:3 gdb_90574=T pbc="F F F"
O       -0.00720000       1.46360000       0.20730000
C        0.03020000       0.06310000       0.04880000
C        0.34760000      -0.73190000       1.36080000
C       -1.09900000      -1.25940000       1.35850000
C       -1.40890000      -0.48290000       0.10060000
N       -1.45970000      -1.92370000       0.12030000
C       -0.55570000      -2.77620000      -0.63150000
C       -0.81690000      -4.23510000      -0.28610000
O        0.00640000      -5.10690000      -0.37900000
H        0.89800000       1.78510000       0.26820000
H        0.61270000      -0.21950000      -0.83960000
H        1.15560000      -1.47000000       1.34870000
H        0.51390000      -0.02600000       2.17750000
H       -1.71420000      -1.43980000       2.23310000
H       -2.28820000       0.08260000      -0.18840000
H       -0.78530000      -2.65760000      -1.70030000
H        0.51760000      -2.58060000      -0.50710000
H       -1.85800000      -4.43370000       0.05180000
