17
Properties=species:S:1:pos:R:3 gdb_99840=T pbc="F F F"
N        0.06690000       1.50300000       0.02450000
C        0.12220000       0.05510000      -0.08310000
C        0.80200000      -0.52630000       1.16760000
O        2.13800000      -0.02640000       1.29570000
C        0.10420000      -0.09070000       2.39520000
N       -0.44540000       0.18190000       3.37320000
C        0.79110000      -2.07420000       1.15690000
N        1.85500000      -2.62140000       1.83160000
N       -0.14200000      -2.66990000       0.52720000
H        1.00280000       1.89350000       0.03710000
H       -0.42570000       1.90090000      -0.76630000
H       -0.88620000      -0.35570000      -0.15060000
H        0.68110000      -0.33880000      -0.95150000
H        2.63510000      -0.36230000       0.53940000
H        2.38330000      -2.01370000       2.43860000
H        1.79100000      -3.58740000       2.11070000
H       -0.06750000      -3.68560000       0.60680000
