11
Properties=species:S:1:pos:R:3 gdb_21782=T pbc="F F F"
O       -0.06670000      -0.01680000      -0.00150000
C        0.00650000       1.18200000       0.00770000
C        1.28360000       1.96260000       0.00080000
C        1.26080000       3.35900000       0.01230000
N        2.38640000       4.06240000       0.00600000
C        3.49450000       3.31860000      -0.01210000
N        3.56990000       1.98120000      -0.02290000
N        2.44270000       1.29150000      -0.01670000
H       -0.90170000       1.82560000       0.02240000
H        0.32150000       3.90940000       0.02650000
H        4.44740000       3.83930000      -0.01650000
