19
Properties=species:S:1:pos:R:3 gdb_46326=T pbc="F F F"
O       -0.34010000       0.07610000      -0.27380000
C       -0.18110000       1.23810000      -0.05150000
C       -1.04760000       2.41420000       0.40690000
O        0.10700000       3.27130000       0.32900000
C        1.00570000       2.20670000      -0.11700000
C        2.19340000       1.97920000       0.85230000
C        3.46740000       2.00230000      -0.01670000
C        3.07980000       2.88580000      -1.21320000
C        1.63460000       2.44980000      -1.50370000
H       -1.84940000       2.70030000      -0.28610000
H       -1.45800000       2.33320000       1.42170000
H        2.17930000       2.81580000       1.55790000
H        2.08660000       1.05740000       1.43050000
H        4.33930000       2.37050000       0.53050000
H        3.70440000       0.99050000      -0.36580000
H        3.10070000       3.94340000      -0.92450000
H        3.74290000       2.76500000      -2.07410000
H        1.63520000       1.49950000      -2.05220000
H        1.04730000       3.17130000      -2.07590000
