21
Properties=species:S:1:pos:R:3 gdb_52238=T pbc="F F F"
O       -0.63150000       0.80120000       0.88280000
C       -0.00010000       1.02730000      -0.11710000
C        1.30730000       1.78100000      -0.17130000
C        1.22760000       3.00150000      -1.10760000
C        2.56930000       3.71540000      -1.25650000
C        3.74290000       3.01250000      -2.03020000
C        3.85310000       4.24210000      -2.94080000
C        2.55500000       4.46480000      -3.65980000
C        2.67260000       4.90420000      -2.22520000
H       -0.36800000       0.68380000      -1.11390000
H        1.58700000       2.07060000       0.84610000
H        2.07260000       1.08840000      -0.55180000
H        0.86330000       2.68080000      -2.09190000
H        0.48390000       3.70880000      -0.71840000
H        2.92370000       4.01550000      -0.26470000
H        4.61980000       2.84450000      -1.40180000
H        3.49730000       2.07350000      -2.54030000
H        4.77990000       4.69050000      -3.27680000
H        2.55430000       5.27390000      -4.38330000
H        1.93110000       3.62090000      -3.94500000
H        2.54230000       5.94260000      -1.94350000
