13
Properties=species:S:1:pos:R:3 gdb_48064=T pbc="F F F"
O       -0.84830000       1.49160000       0.13570000
C        0.24800000       1.08810000      -0.13740000
C        1.46800000       1.99800000      -0.33460000
O        2.48250000       1.51710000      -0.77420000
C        1.30450000       3.48750000      -0.05250000
C        2.20460000       4.39490000      -0.78940000
O        0.86760000       4.18240000      -1.23990000
C        0.72610000       3.86700000       1.20670000
C        0.29190000       4.15730000       2.28880000
H        0.49040000       0.01960000      -0.31470000
H        2.40060000       5.37710000      -0.36610000
H        2.98760000       3.95870000      -1.40450000
H       -0.11640000       4.41460000       3.23550000
