20
Properties=species:S:1:pos:R:3 gdb_73039=T pbc="F F F"
C       -0.16520000       1.56810000       0.10990000
C       -0.03490000       0.07250000       0.04100000
C       -1.23140000      -0.89600000       0.04020000
C       -0.42910000      -1.88240000       0.94720000
C        0.75500000      -0.91060000       0.93090000
C        1.20560000      -0.61030000      -0.47370000
C        1.24200000      -1.61890000      -1.61750000
C        2.43330000      -2.46750000      -1.56710000
N        3.38210000      -3.12530000      -1.51420000
H        0.79920000       2.04230000       0.31910000
H       -0.53760000       1.98050000      -0.83610000
H       -0.86470000       1.86920000       0.89810000
H       -2.09480000      -0.47410000       0.56020000
H       -1.57240000      -1.26210000      -0.93440000
H       -0.87580000      -1.98220000       1.93810000
H       -0.24240000      -2.88860000       0.55760000
H        1.40040000      -0.69930000       1.77590000
H        2.06230000       0.05970000      -0.49260000
H        0.36050000      -2.26650000      -1.60820000
H        1.23230000      -1.09650000      -2.58160000
