25
Properties=species:S:1:pos:R:3 gdb_96072=T pbc="F F F"
C       -0.05670000       1.56240000       0.02140000
C        0.04950000       0.03230000       0.00730000
C        0.65070000      -0.49330000      -1.30700000
C        0.84730000      -2.01070000      -1.25190000
C        1.88150000      -2.41280000      -0.18860000
C        1.68050000      -1.72100000       1.16870000
C        1.67650000      -2.65650000       2.36250000
C        2.29810000      -0.35190000       1.35810000
C        0.79860000      -0.48710000       1.22810000
H        0.93560000       2.02330000      -0.03570000
H       -0.64670000       1.92570000      -0.82730000
H       -0.53510000       1.91910000       0.93990000
H       -0.97170000      -0.37410000       0.06780000
H       -0.01190000      -0.22120000      -2.13680000
H        1.61160000       0.00050000      -1.51020000
H       -0.11770000      -2.48210000      -1.02140000
H        1.15670000      -2.39680000      -2.22960000
H        1.84340000      -3.49840000      -0.04410000
H        2.88930000      -2.19620000      -0.56610000
H        2.62040000      -3.21120000       2.43200000
H        1.54450000      -2.10820000       3.30110000
H        0.86650000      -3.39240000       2.28900000
H        2.70770000      -0.09870000       2.33110000
H        2.85290000       0.07110000       0.52600000
H        0.24710000      -0.35620000       2.15740000
