13
Properties=species:S:1:pos:R:3 gdb_24537=T pbc="F F F"
N       -0.02530000       1.33530000       0.01020000
C        1.14870000       2.02310000       0.00200000
N        2.32820000       1.46300000      -0.01300000
C        2.41470000       0.10440000      -0.02110000
C        1.28600000      -0.67970000      -0.01380000
N        1.04520000      -2.02790000      -0.01850000
C       -0.28250000      -2.07840000      -0.00540000
N       -0.98970000      -0.89070000       0.00810000
C        0.00070000      -0.02200000       0.00270000
H       -0.91260000       1.82410000       0.02180000
H        1.06210000       3.10430000       0.00860000
H        3.41580000      -0.31560000      -0.03340000
H       -0.81610000      -3.02130000      -0.00500000
