16
Properties=species:S:1:pos:R:3 gdb_38825=T pbc="F F F"
C        0.00390000       1.56850000       0.02290000
C        1.53970000       1.53270000       0.04980000
O        1.97070000       0.82200000      -1.13210000
C        1.56270000       0.06110000      -0.00490000
C        2.34830000      -1.03120000       0.63410000
N        1.60600000      -1.62270000       1.74790000
C        0.38120000      -1.35440000       1.90770000
O       -0.47130000      -0.57050000       1.19110000
C        0.03030000       0.00670000      -0.01770000
H       -0.44520000       1.92050000       0.95360000
H       -0.44240000       2.07900000      -0.83280000
H        2.24350000       2.23590000       0.47920000
H        2.56500000      -1.82170000      -0.09750000
H        3.31720000      -0.67640000       1.00160000
H       -0.16350000      -1.78410000       2.74640000
H       -0.44650000      -0.48860000      -0.86760000
