17
Properties=species:S:1:pos:R:3 gdb_93183=T pbc="F F F"
C       -0.05930000       1.51510000       0.05460000
C       -0.01170000       0.00150000      -0.05830000
C        0.85410000      -0.49040000      -1.21120000
N        0.92760000      -1.94020000      -1.15290000
C        0.91250000      -2.64630000       0.00830000
O        1.05050000      -3.85310000       0.06610000
C        0.73280000      -1.82590000       1.28810000
N        0.84980000      -2.34540000       2.43180000
O        0.51140000      -0.49080000       1.18420000
H        0.94690000       1.92390000       0.18500000
H       -0.50500000       1.95240000      -0.84350000
H       -0.66110000       1.80470000       0.91880000
H       -1.02710000      -0.39930000      -0.19040000
H        0.40350000      -0.19160000      -2.16270000
H        1.85100000      -0.03060000      -1.14970000
H        1.14760000      -2.47140000      -1.98300000
H        1.05100000      -3.33920000       2.29620000
