19
Properties=species:S:1:pos:R:3 gdb_33660=T pbc="F F F"
C       -0.02970000      -1.19600000       0.05760000
C       -0.02520000       0.00840000       0.02670000
C        0.00590000       1.42360000      -0.00870000
C       -0.72050000       2.48400000       0.83360000
C        0.58750000       3.23780000       1.06560000
C        1.25270000       2.37050000      -0.05150000
C        1.17790000       3.06600000      -1.41500000
C       -0.34300000       3.30900000      -1.62710000
C       -1.01360000       2.34880000      -0.64550000
H       -0.03810000      -2.25690000       0.08390000
H       -1.49610000       2.31130000       1.57070000
H        0.58660000       4.32380000       0.91650000
H        1.00370000       3.01620000       2.05130000
H        2.21930000       1.93270000       0.19350000
H        1.76120000       3.99220000      -1.44050000
H        1.57210000       2.40430000      -2.19410000
H       -0.62200000       4.34840000      -1.42270000
H       -0.64780000       3.09410000      -2.65520000
H       -1.98250000       1.92640000      -0.88620000
