14
Properties=species:S:1:pos:R:3 gdb_16497=T pbc="F F F"
O        0.14450000       1.42290000       0.05540000
C        0.03290000       0.03170000      -0.00080000
C        0.20270000      -0.75680000       1.32860000
O       -0.75000000      -0.07860000       2.21220000
C       -1.77460000      -0.70710000       1.42590000
C       -0.88960000      -1.76710000       0.84940000
C       -1.35120000      -0.62900000      -0.05180000
O       -2.22610000      -0.73960000      -1.10580000
H       -0.23840000       1.67040000       0.90920000
H        0.68430000      -0.34720000      -0.79210000
H        1.16530000      -0.95690000       1.79230000
H       -2.79590000      -0.72270000       1.78240000
H       -0.94840000      -2.84260000       0.77590000
H       -2.67690000       0.10540000      -1.21600000
