14
Properties=species:S:1:pos:R:3 gdb_129275=T pbc="F F F"
N        0.03830000       1.35350000       0.25150000
C        0.00070000       0.09990000       0.12960000
O        1.07200000      -0.77620000      -0.03160000
N        0.64220000      -2.15970000       0.12090000
C       -0.63320000      -2.02570000       0.16360000
C       -1.93780000      -2.55240000       0.70160000
C       -2.20710000      -1.76110000       1.98100000
C       -2.40130000      -1.08630000       0.65790000
N       -1.10380000      -0.74140000       0.04470000
H        0.99890000       1.68950000       0.25180000
H       -2.46240000      -3.45400000       0.42620000
H       -3.11850000      -2.04330000       2.50030000
H       -1.38410000      -1.47370000       2.62690000
H       -3.31850000      -0.65220000       0.28780000
