13
Properties=species:S:1:pos:R:3 gdb_48188=T pbc="F F F"
O       -0.12970000       0.05390000       0.00290000
C        0.00120000       1.23770000       0.00810000
C        1.39750000       1.98250000      -0.00100000
C        1.38420000       2.82210000      -1.20870000
C        1.29940000       3.48050000      -2.20900000
C        1.40690000       2.80890000       1.21590000
C        1.34100000       3.45630000       2.22470000
C        2.50650000       1.02640000      -0.01660000
C        3.40460000       0.23210000      -0.02930000
H       -0.83980000       1.95830000       0.01980000
H        1.25430000       4.07090000      -3.09120000
H        1.31230000       4.03710000       3.11390000
H        4.20080000      -0.47100000      -0.04060000
