15
Properties=species:S:1:pos:R:3 gdb_46816=T pbc="F F F"
O        0.03040000      -0.01200000       0.00320000
C       -0.01820000       1.18490000      -0.04520000
C       -1.26800000       2.06530000      -0.14220000
C       -0.81370000       3.35750000      -0.85530000
C        0.67960000       3.45750000      -0.57190000
N        0.99810000       3.27470000       0.83850000
C        1.18140000       2.11910000      -0.10420000
C        2.49550000       1.62750000      -0.38490000
N        3.56270000       1.23790000      -0.60100000
H       -2.06300000       1.52670000      -0.65940000
H       -1.61070000       2.27280000       0.87640000
H       -0.96860000       3.27870000      -1.93600000
H       -1.34470000       4.24600000      -0.50340000
H        1.31630000       4.08670000      -1.18500000
H        1.91960000       3.65710000       1.04430000
