18
Properties=species:S:1:pos:R:3 gdb_38325=T pbc="F F F"
C       -0.08870000       1.62940000       0.08530000
C        1.41110000       1.24160000       0.04250000
O        1.12850000       0.17860000       1.03500000
C        0.02530000       0.08430000       0.05070000
C        1.07630000       0.22620000      -1.07130000
C        0.95970000       0.35490000      -2.59830000
C        2.49010000       0.14040000      -2.56150000
N        2.00770000      -0.89230000      -1.51970000
C        0.89830000      -1.18900000      -2.55200000
H       -0.41800000       2.03040000       1.04400000
H       -0.52450000       2.14500000      -0.77430000
H        2.29360000       1.86000000       0.20340000
H       -0.73930000      -0.67300000       0.22140000
H        0.37020000       1.05640000      -3.19860000
H        2.95810000      -0.32130000      -3.43460000
H        3.11960000       0.92770000      -2.14080000
H        0.01440000      -1.66560000      -2.12240000
H        1.26320000      -1.73690000      -3.42450000
