19
Properties=species:S:1:pos:R:3 gdb_121558=T pbc="F F F"
C       -0.09950000       1.27490000      -0.58020000
O       -0.07460000       0.03830000       0.09270000
C       -1.30060000      -0.65000000       0.02240000
C       -1.13430000      -1.96730000       0.78830000
C       -2.34860000      -2.77280000       0.78230000
C       -3.36760000      -3.41460000       0.77880000
C       -4.58820000      -4.20530000       0.71640000
C       -4.86870000      -4.72840000      -0.69420000
O       -5.96660000      -4.79250000      -1.17570000
H        0.88950000       1.72630000      -0.47080000
H       -0.31820000       1.15190000      -1.65270000
H       -0.85150000       1.95720000      -0.15350000
H       -2.11440000      -0.05480000       0.46740000
H       -1.57970000      -0.85420000      -1.02420000
H       -0.30290000      -2.52640000       0.34270000
H       -0.83510000      -1.73640000       1.81770000
H       -4.50060000      -5.08920000       1.36750000
H       -5.46800000      -3.64840000       1.05520000
H       -3.96200000      -5.06250000      -1.24400000
