19
Properties=species:S:1:pos:R:3 gdb_114190=T pbc="F F F"
C        0.16480000       1.63390000      -0.50580000
O        0.49090000       0.36920000       0.04720000
C        0.67140000      -0.62260000      -0.92150000
C        0.98370000      -2.03390000      -0.34060000
C       -0.18290000      -2.61570000      -1.15770000
C       -0.21650000      -3.83150000      -2.06330000
C       -1.10990000      -3.77240000      -0.86640000
C       -0.60560000      -1.23770000      -1.57320000
O       -1.57220000      -0.78350000      -2.12280000
H        0.96940000       1.99950000      -1.16290000
H       -0.76790000       1.59490000      -1.08040000
H        0.04850000       2.32550000       0.33160000
H        1.39440000      -0.30690000      -1.69330000
H        1.97940000      -2.42170000      -0.56320000
H        0.81390000      -2.05490000       0.73840000
H       -0.65750000      -3.69950000      -3.04570000
H        0.64840000      -4.48590000      -2.03110000
H       -0.86820000      -4.39110000      -0.00880000
H       -2.16820000      -3.58990000      -1.02100000
