18
Properties=species:S:1:pos:R:3 gdb_30829=T pbc="F F F"
C        0.26470000       1.59380000      -0.17410000
C       -0.05640000       0.10620000       0.06580000
C        0.60690000      -0.48360000       1.26450000
C        0.10150000      -0.86240000       2.48220000
O       -1.22020000      -0.73940000       2.82250000
C        1.16260000      -1.35860000       3.30700000
C        2.30200000      -1.25810000       2.54180000
O        3.60290000      -1.57510000       2.77080000
N        1.98330000      -0.73100000       1.33220000
H        1.33910000       1.75220000      -0.31920000
H       -0.25020000       1.96870000      -1.06500000
H       -0.04460000       2.19880000       0.68320000
H       -1.13580000      -0.01530000       0.20100000
H        0.20430000      -0.46600000      -0.83690000
H       -1.38330000      -1.27570000       3.60290000
H        1.09280000      -1.72480000       4.32020000
H        3.67440000      -1.93000000       3.66160000
H        2.64400000      -0.58960000       0.58860000
