23
Properties=species:S:1:pos:R:3 gdb_80402=T pbc="F F F"
C        0.01840000       1.62310000       0.04550000
C        0.05340000       0.11390000      -0.01830000
C        0.63600000      -0.67820000      -1.18280000
C        1.60050000       0.01120000      -2.14420000
C        2.93990000       0.04730000      -1.35590000
C        3.77880000      -1.20840000      -1.62660000
C        3.75560000       1.31460000      -1.58360000
O        2.53000000       0.04180000       0.03610000
C        1.32930000      -0.67350000       0.15510000
H        0.99610000       2.05480000      -0.17760000
H       -0.71400000       2.04040000      -0.65450000
H       -0.25880000       1.95320000       1.05230000
H       -0.81770000      -0.36810000       0.42120000
H        0.08830000      -1.54610000      -1.53080000
H        1.70060000      -0.54940000      -3.07750000
H        1.27710000       1.02390000      -2.40670000
H        4.14570000      -1.22270000      -2.65840000
H        4.63890000      -1.23930000      -0.95160000
H        3.18350000      -2.11240000      -1.46440000
H        3.16510000       2.20510000      -1.35060000
H        4.64670000       1.31890000      -0.94910000
H        4.07850000       1.37840000      -2.62750000
H        1.37640000      -1.53570000       0.81450000
