14
Properties=species:S:1:pos:R:3 gdb_26613=T pbc="F F F"
N       -0.00930000       1.41440000       0.15520000
C        0.00490000       0.04130000       0.05760000
C       -1.15520000      -0.68590000       0.03450000
O       -2.37150000      -0.07270000       0.05000000
C       -1.16690000      -2.11760000      -0.01740000
O       -2.18290000      -2.78440000      -0.05120000
O        0.06590000      -2.75010000      -0.03950000
C        1.20940000      -2.03670000      -0.01600000
C        1.23970000      -0.69260000       0.03130000
H        0.79200000       1.90590000      -0.20800000
H       -0.89410000       1.85040000      -0.05820000
H       -3.01680000      -0.79760000       0.00790000
H        2.08300000      -2.67450000      -0.03810000
H        2.19120000      -0.17630000       0.05720000
