16
Properties=species:S:1:pos:R:3 gdb_62284=T pbc="F F F"
N       -0.06350000       1.45810000      -0.03190000
C       -0.03380000       0.01580000      -0.05770000
C        0.81740000      -0.50130000       1.01580000
N        1.51320000      -0.90700000       1.84460000
C       -1.38010000      -0.72060000      -0.10150000
C       -1.75640000      -0.81510000      -1.58020000
N       -0.70840000      -0.07260000      -2.32450000
C        0.25770000      -0.76710000      -1.40880000
C       -0.82620000      -1.82950000      -0.98600000
H        0.87080000       1.84110000       0.07540000
H       -0.43040000       1.76630000      -0.93020000
H       -2.11250000      -0.78840000       0.69150000
H       -2.78410000      -0.88890000      -1.91030000
H       -0.62070000      -0.50310000      -3.24390000
H        1.27340000      -0.92990000      -1.76110000
H       -0.83640000      -2.90360000      -0.87190000
