20
Properties=species:S:1:pos:R:3 gdb_74754=T pbc="F F F"
C        0.05200000       1.44920000       0.04580000
C       -0.04160000      -0.03400000      -0.01950000
C       -0.07320000      -0.89090000      -1.04800000
C       -0.03900000      -2.25690000      -0.35300000
N       -0.98140000      -2.07860000       0.80720000
C       -0.01060000      -0.99720000       1.19000000
C        1.10500000      -2.00920000       0.73370000
C        1.39230000      -3.17360000       1.67020000
O        2.29840000      -1.39810000       0.32030000
H        1.00530000       1.75690000       0.49480000
H       -0.01100000       1.89880000      -0.94930000
H       -0.74200000       1.88200000       0.66780000
H       -0.03380000      -0.69560000      -2.11050000
H       -0.11890000      -3.17280000      -0.94080000
H       -1.86040000      -1.67030000       0.48810000
H       -0.06140000      -0.58890000       2.20160000
H        0.46970000      -3.63440000       2.02000000
H        1.98560000      -3.93840000       1.15080000
H        1.97350000      -2.82760000       2.53210000
H        2.98640000      -2.06980000       0.29820000
