19
Properties=species:S:1:pos:R:3 gdb_77637=T pbc="F F F"
C       -0.09160000       1.47960000       0.05230000
N        0.12090000       0.04800000      -0.11040000
C        0.69060000      -0.56550000      -1.28520000
C       -0.05770000      -1.65900000      -1.98540000
C        1.82000000       0.28820000      -1.90510000
C        2.57650000       0.27100000      -0.54390000
C        1.42690000      -0.56450000       0.06020000
C        1.58650000      -1.60420000       1.03170000
N        1.74830000      -2.44890000       1.80610000
H        0.70130000       2.12170000      -0.35320000
H       -1.03170000       1.74430000      -0.44020000
H       -0.19570000       1.69490000       1.11930000
H       -0.76130000      -1.23610000      -2.71250000
H        0.62620000      -2.31970000      -2.52720000
H       -0.62820000      -2.25020000      -1.26550000
H        2.36070000      -0.25040000      -2.68540000
H        1.51900000       1.26240000      -2.29950000
H        3.50770000      -0.29500000      -0.59100000
H        2.77230000       1.23000000      -0.05730000
