14
Properties=species:S:1:pos:R:3 gdb_28396=T pbc="F F F"
N        0.02350000       1.40260000       0.14540000
C       -0.05160000       0.02170000       0.04360000
C       -1.18480000      -0.72340000       0.01300000
N       -1.18180000      -2.11210000      -0.01930000
C       -0.03750000      -2.67320000      -0.01860000
O        0.13630000      -3.99690000      -0.03670000
O        1.16070000      -2.06370000      -0.00360000
C        1.23000000      -0.67320000       0.01090000
N        2.34590000      -0.07160000      -0.01290000
H        0.92820000       1.76090000      -0.13150000
H       -0.75240000       1.91180000      -0.25020000
H       -2.16530000      -0.25960000       0.01910000
H       -0.75090000      -4.38110000      -0.04350000
H        3.12820000      -0.72320000      -0.04450000
