20
Properties=species:S:1:pos:R:3 gdb_62993=T pbc="F F F"
C       -0.07880000       1.55860000      -0.07320000
C        0.00470000       0.03600000      -0.02890000
C       -1.35270000      -0.59620000       0.27170000
C        0.69500000      -0.64710000      -1.22760000
N        2.09030000      -0.16110000      -1.26550000
C        1.71810000      -1.27410000      -0.35480000
C        1.14040000      -0.61760000       0.90580000
C        2.04630000       0.30680000       1.67660000
O        1.92330000       0.53250000       2.85680000
H        0.87250000       1.99520000      -0.38500000
H       -0.84990000       1.87650000      -0.78430000
H       -0.34400000       1.96530000       0.90870000
H       -2.09420000      -0.28980000      -0.47550000
H       -1.29770000      -1.69000000       0.26180000
H       -1.71790000      -0.28320000       1.25530000
H        0.21410000      -1.02500000      -2.12260000
H        2.53940000      -0.57320000      -2.08230000
H        2.20640000      -2.23780000      -0.42850000
H        0.68600000      -1.32300000       1.60410000
H        2.84650000       0.78630000       1.07590000
