16
Properties=species:S:1:pos:R:3 gdb_128213=T pbc="F F F"
C       -0.05900000       1.44130000       0.13490000
N        0.04210000       0.01580000      -0.04670000
C        0.63900000      -0.57930000      -1.09810000
C        1.25110000       0.02320000      -2.17140000
C        1.82310000      -0.79330000      -3.18030000
N        1.81980000      -2.09830000      -3.17980000
N        1.20790000      -2.66100000      -2.10700000
C        0.60160000      -2.05060000      -1.03890000
O        0.07690000      -2.67330000      -0.11990000
H        0.93140000       1.91300000       0.19200000
H       -0.61190000       1.91570000      -0.68720000
H       -0.58910000       1.64630000       1.06610000
H       -0.34340000      -0.63090000       0.62680000
H        1.30520000       1.10160000      -2.26190000
H        2.31120000      -0.33880000      -4.03620000
H        1.20350000      -3.67190000      -2.10370000
