17
Properties=species:S:1:pos:R:3 gdb_70394=T pbc="F F F"
C       -0.08920000       1.53860000       0.09120000
C        0.13300000       0.06230000       0.01590000
N       -0.80330000      -0.93090000       0.59410000
C        0.63680000      -0.95500000       0.97690000
C        1.33820000      -1.75900000      -0.11240000
C        0.73570000      -0.74590000      -1.17940000
O       -0.19520000      -1.24750000      -2.09210000
C        1.76960000      -0.00950000      -1.90650000
N        2.60500000       0.59530000      -2.42720000
H        0.81370000       2.08280000      -0.20070000
H       -0.89900000       1.84630000      -0.57970000
H       -0.35630000       1.84110000       1.10920000
H       -1.32590000      -0.46410000       1.33360000
H        0.93330000      -0.83350000       2.01090000
H        2.42690000      -1.71180000      -0.06190000
H        1.00710000      -2.79100000      -0.24670000
H       -0.93420000      -1.54330000      -1.53750000
