21
Properties=species:S:1:pos:R:3 gdb_113219=T pbc="F F F"
C       -0.34960000       1.42880000       0.10660000
C        0.27150000       0.04250000      -0.09880000
C        0.91770000      -0.50710000       1.15540000
C        0.07420000      -1.16580000       2.23260000
C        0.99880000      -2.00290000       1.40140000
O        0.38210000      -2.87040000       0.49290000
C        2.24570000      -2.57460000       2.00160000
C        2.41770000      -4.01900000       2.18980000
O        3.04200000      -3.34260000       1.08560000
H        0.40370000       2.16010000       0.42000000
H       -0.80720000       1.79750000      -0.81690000
H       -1.12470000       1.40190000       0.87960000
H       -0.48950000      -0.66510000      -0.44310000
H        1.02370000       0.09400000      -0.89710000
H        1.76760000       0.06920000       1.51740000
H        0.31200000      -0.99620000       3.27760000
H       -0.98310000      -1.29350000       2.02430000
H        1.08540000      -3.16960000      -0.09980000
H        2.81640000      -1.89480000       2.63480000
H        3.10340000      -4.38610000       2.95140000
H        1.60330000      -4.68590000       1.91870000
