25
Properties=species:S:1:pos:R:3 gdb_58323=T pbc="F F F"
C       -0.12300000       1.56530000      -0.03000000
C       -0.03740000       0.02980000      -0.00070000
C        0.55690000      -0.46260000      -1.33160000
C        0.74590000      -0.49360000       1.23530000
C        0.18410000       0.06690000       2.55200000
C        0.78370000      -2.03660000       1.26980000
C        1.65040000      -2.63590000       2.39420000
C        1.85640000      -4.12000000       2.19590000
O        1.57490000      -4.97360000       2.99660000
H        0.87770000       2.01500000      -0.02170000
H       -0.62580000       1.90160000      -0.94240000
H       -0.68010000       1.97160000       0.81720000
H       -1.06390000      -0.36000000       0.07490000
H        1.60970000      -0.16830000      -1.42310000
H        0.50050000      -1.54750000      -1.44840000
H        0.01900000      -0.02000000      -2.17610000
H        1.78500000      -0.14170000       1.13310000
H        0.73340000      -0.31480000       3.41660000
H        0.24700000       1.15630000       2.59080000
H       -0.86880000      -0.21370000       2.67870000
H       -0.24070000      -2.42240000       1.36270000
H        1.16750000      -2.41210000       0.31550000
H        2.64360000      -2.16210000       2.37050000
H        1.22220000      -2.48170000       3.38700000
H        2.30150000      -4.38950000       1.20760000
