15
Properties=species:S:1:pos:R:3 gdb_14670=T pbc="F F F"
O        0.19620000       0.65920000       1.06060000
C       -0.07730000       0.20210000      -0.25750000
C       -1.40470000      -0.39900000      -0.29950000
C       -2.50370000      -0.88560000      -0.35730000
C       -3.82100000      -1.50460000      -0.39700000
C       -3.85120000      -2.84050000       0.39110000
C       -5.16840000      -3.47080000       0.35160000
N       -6.21750000      -3.95310000       0.30660000
H        1.07350000       1.05550000       1.05110000
H       -0.03780000       1.02910000      -0.98520000
H        0.66560000      -0.54380000      -0.58450000
H       -4.57340000      -0.82560000       0.01980000
H       -4.11840000      -1.69390000      -1.43480000
H       -3.11130000      -3.53230000      -0.02330000
H       -3.57080000      -2.66100000       1.43370000
