17
Properties=species:S:1:pos:R:3 gdb_29543=T pbc="F F F"
C       -0.02340000       1.52480000       0.06520000
C       -0.01000000       0.03890000      -0.02720000
C       -0.02580000      -0.78100000      -1.09050000
C       -0.00050000      -2.23530000      -0.65410000
C        0.03220000      -2.09050000       0.84010000
N        0.06460000      -2.84700000       1.90860000
C        0.07920000      -1.94790000       2.96060000
C        0.05550000      -0.64590000       2.51650000
N        0.02530000      -0.75380000       1.14450000
H        0.86790000       1.89730000       0.58380000
H       -0.05160000       1.96790000      -0.93210000
H       -0.89670000       1.87880000       0.62550000
H       -0.05280000      -0.45660000      -2.12030000
H       -0.88200000      -2.78990000      -0.99870000
H        0.87570000      -2.77140000      -1.03900000
H        0.10620000      -2.28960000       3.98440000
H        0.05740000       0.29930000       3.03200000
