22
Properties=species:S:1:pos:R:3 gdb_120577=T pbc="F F F"
C        0.07500000       1.54550000      -0.16450000
C        0.17910000       0.02220000      -0.05870000
C        0.42980000      -0.46310000       1.37620000
C        0.53310000      -1.96930000       1.45250000
N        1.82080000      -2.58310000       1.10160000
C        1.31480000      -2.72290000       2.49340000
C        2.13400000      -2.03240000       3.56910000
C        0.78530000      -4.01020000       2.87570000
C        0.36560000      -5.09020000       3.20110000
H        0.99670000       2.02970000       0.17680000
H       -0.10380000       1.86200000      -1.19680000
H       -0.74690000       1.93150000       0.44910000
H       -0.74250000      -0.43650000      -0.44130000
H        0.99260000      -0.34150000      -0.69790000
H        1.34960000      -0.00620000       1.75440000
H       -0.38690000      -0.12630000       2.02910000
H       -0.36030000      -2.48890000       1.10700000
H        1.67810000      -3.45370000       0.59610000
H        2.57190000      -1.10870000       3.18870000
H        1.51370000      -1.80200000       4.44070000
H        2.94910000      -2.68520000       3.89520000
H       -0.01210000      -6.04050000       3.48700000
