22
Properties=species:S:1:pos:R:3 gdb_59631=T pbc="F F F"
C       -1.34230000      -0.62590000      -0.34620000
C       -0.00680000       0.02990000       0.03280000
C       -0.14100000       1.55650000       0.08050000
C        0.51650000      -0.52240000       1.37070000
C        0.82110000      -2.04650000       1.36050000
O        2.16340000      -2.14570000       1.88080000
C        2.60390000      -0.86300000       2.01760000
C        4.01750000      -0.73330000       2.47190000
N        1.79990000       0.08690000       1.76390000
H       -2.10990000      -0.40730000       0.40610000
H       -1.70350000      -0.24360000      -1.30610000
H       -1.26360000      -1.71470000      -0.43520000
H        0.73920000      -0.22710000      -0.73340000
H       -0.88890000       1.85760000       0.82440000
H        0.80780000       2.02250000       0.35250000
H       -0.46300000       1.94880000      -0.88980000
H       -0.22520000      -0.28050000       2.14590000
H        0.16070000      -2.63960000       1.99730000
H        0.81600000      -2.47330000       0.35090000
H        4.14930000      -1.22440000       3.44120000
H        4.69070000      -1.22710000       1.76420000
H        4.28130000       0.32020000       2.55670000
