17
Properties=species:S:1:pos:R:3 gdb_105791=T pbc="F F F"
O        0.10290000       1.42300000      -0.08950000
C        0.07780000       0.01030000      -0.04730000
C       -1.36200000      -0.47810000      -0.01200000
O       -2.00090000      -0.10670000      -1.20640000
C       -2.97150000      -1.10740000      -1.51890000
C       -2.64670000      -2.27130000      -0.55220000
O       -1.41100000      -1.88900000       0.05780000
C       -2.12590000       0.05950000       1.21880000
O       -3.29950000       0.32100000       1.20050000
H       -0.39480000       1.68740000      -0.87230000
H        0.58080000      -0.45570000      -0.90500000
H        0.59690000      -0.29520000       0.86590000
H       -3.98150000      -0.71960000      -1.36100000
H       -2.84630000      -1.38470000      -2.56990000
H       -3.43060000      -2.39210000       0.20390000
H       -2.48450000      -3.22560000      -1.05780000
H       -1.52410000       0.11110000       2.15230000
