16
Properties=species:S:1:pos:R:3 gdb_19382=T pbc="F F F"
O        0.04320000       0.04620000      -0.12810000
C       -0.01380000       1.23770000       0.00510000
C       -1.13070000       2.24920000      -0.01430000
C       -0.95910000       3.22700000       1.14490000
C       -0.06070000       3.37460000      -0.03260000
C        1.04290000       2.32930000       0.04980000
C        2.35740000       2.33520000       0.78270000
C        2.33390000       2.25060000      -0.71950000
H       -2.06860000       2.16870000      -0.54840000
H       -1.77110000       3.94200000       1.23420000
H       -0.55980000       2.88250000       2.09450000
H       -0.05550000       4.24120000      -0.68030000
H        2.67400000       3.26760000       1.23850000
H        2.61740000       1.44160000       1.34070000
H        2.56440000       1.29830000      -1.18560000
H        2.63460000       3.12460000      -1.28760000
