21
Properties=species:S:1:pos:R:3 gdb_111688=T pbc="F F F"
C       -0.09080000       1.57500000      -0.29030000
C        0.05130000       0.10980000       0.13870000
C       -1.29040000      -0.59300000       0.16070000
C       -1.86790000      -1.27080000      -1.05140000
O       -0.95130000      -1.56190000      -2.08000000
C       -0.34050000      -2.82030000      -1.80320000
C       -0.42030000      -3.05780000      -0.27370000
O        0.78910000      -2.78430000       0.42440000
C       -1.52410000      -2.10250000       0.15710000
H        0.87880000       2.08300000      -0.28310000
H       -0.50150000       1.64700000      -1.30270000
H       -0.75940000       2.12680000       0.38070000
H        0.73050000      -0.40960000      -0.53870000
H        0.50700000       0.05060000       1.13340000
H       -2.03570000      -0.07640000       0.76500000
H       -2.88250000      -1.09130000      -1.39560000
H       -0.87360000      -3.62020000      -2.34060000
H        0.69480000      -2.78880000      -2.15930000
H       -0.73360000      -4.09290000      -0.07470000
H        1.43960000      -3.44400000       0.16340000
H       -2.29260000      -2.48960000       0.81510000
