18
Properties=species:S:1:pos:R:3 gdb_109120=T pbc="F F F"
C       -0.00700000       1.44720000       0.01810000
N       -0.07730000      -0.00400000      -0.07130000
C        0.59010000      -0.63110000      -1.08500000
N        1.14340000      -0.04730000      -2.08760000
C        1.64940000      -1.11700000      -2.94160000
C        1.30610000      -2.43580000      -2.24550000
O        1.51670000      -3.58020000      -2.57240000
N        0.64920000      -2.03320000      -1.08610000
C        0.07720000      -2.95320000      -0.13050000
H        1.00270000       1.80990000       0.24930000
H       -0.30300000       1.87510000      -0.94100000
H       -0.69970000       1.78540000       0.79170000
H       -0.11270000      -0.50110000       0.80460000
H        1.19580000      -1.09610000      -3.94030000
H        2.73370000      -1.04050000      -3.08720000
H        0.23950000      -3.95810000      -0.52670000
H        0.56650000      -2.88230000       0.84870000
H       -0.99720000      -2.78130000      -0.00680000
