11
Properties=species:S:1:pos:R:3 gdb_11690=T pbc="F F F"
O        0.05260000       0.00740000       0.00500000
C        0.00990000       1.19540000       0.04870000
C       -1.15040000       2.23840000       0.10390000
C       -0.06220000       3.30770000      -0.09940000
O        0.83150000       3.18860000       1.00320000
C        1.05230000       2.31010000      -0.11340000
C       -0.15840000       4.54880000      -0.80100000
N       -0.27600000       5.54490000      -1.37560000
H       -1.82590000       2.10550000      -0.74530000
H       -1.71530000       2.32670000       1.03270000
H        2.02290000       2.33490000      -0.59430000
