17
Properties=species:S:1:pos:R:3 gdb_49039=T pbc="F F F"
O       -0.55200000       0.71440000       0.45060000
C        0.51350000       0.79340000      -0.10560000
C        1.45950000       1.96770000       0.02200000
C        1.38170000       2.73000000       1.35310000
C        1.43860000       4.17890000       0.93180000
C        1.41860000       4.34100000      -0.39150000
C        1.39300000       3.03370000      -1.13010000
C        2.76660000       2.44820000      -1.53940000
O        2.79810000       1.59460000      -0.37450000
H        0.88890000      -0.00330000      -0.78600000
H        0.45170000       2.48830000       1.88150000
H        2.21750000       2.43780000       1.99920000
H        1.47560000       4.98720000       1.65410000
H        1.43200000       5.29450000      -0.90790000
H        0.60020000       2.95120000      -1.87780000
H        2.75970000       1.86380000      -2.46830000
H        3.60610000       3.15150000      -1.55690000
