21
Properties=species:S:1:pos:R:3 gdb_83956=T pbc="F F F"
O        0.14970000       1.39500000      -0.12290000
C        0.00920000       0.00730000       0.02810000
C        0.21590000      -0.68270000       1.41210000
C       -0.45360000       0.15370000       2.51530000
C       -1.98720000       0.23760000       2.30340000
C       -2.39680000       0.15760000       0.81040000
C       -1.39280000      -0.67810000       0.00050000
C       -0.75550000      -1.78320000       0.88310000
O       -0.13270000      -2.74230000       0.04710000
H       -0.42440000       1.84280000       0.50590000
H        0.66210000      -0.43950000      -0.72090000
H        1.22980000      -0.99050000       1.68650000
H       -0.24390000      -0.27310000       3.50200000
H        0.00210000       1.15290000       2.52080000
H       -2.45130000      -0.60240000       2.82950000
H       -2.39440000       1.13990000       2.77070000
H       -3.40230000      -0.26840000       0.72940000
H       -2.46100000       1.15770000       0.36110000
H       -1.79150000      -0.99180000      -0.96660000
H       -1.40400000      -2.27350000       1.62080000
H        0.48150000      -3.25080000       0.58650000
