18
Properties=species:S:1:pos:R:3 gdb_73417=T pbc="F F F"
C        0.03940000       1.45630000      -0.05000000
C        0.01510000      -0.05020000       0.02550000
O        0.88040000      -0.60460000      -0.95290000
C        1.09370000      -1.97920000      -0.59690000
C        0.37850000      -2.14760000       0.73720000
C        0.29770000      -0.75560000       1.39360000
C       -1.23320000      -1.00270000       1.55170000
C       -1.37250000      -0.71600000       0.10460000
N       -1.12900000      -2.12570000       0.57750000
H        1.05930000       1.82800000       0.08430000
H       -0.32030000       1.79530000      -1.02650000
H       -0.60160000       1.89060000       0.72230000
H        0.66600000      -2.64420000      -1.35820000
H        2.17250000      -2.16860000      -0.52970000
H        0.68430000      -3.00020000       1.34330000
H        1.01570000      -0.35990000       2.10830000
H       -1.93050000      -0.97560000       2.37650000
H       -2.25470000      -0.54630000      -0.50020000
