21
Properties=species:S:1:pos:R:3 gdb_58610=T pbc="F F F"
C        0.56470000       1.58940000      -0.27490000
C        0.06490000       0.16040000       0.00460000
C        0.22210000      -0.72640000      -1.23490000
C        0.77260000      -0.38510000       1.24160000
C        1.30020000      -1.76520000       1.33450000
O        2.17780000      -0.66710000       1.12010000
C        0.36960000       0.26430000       2.55610000
C        1.42820000       0.38020000       3.63320000
O       -0.75730000       0.68210000       2.70370000
H        1.63560000       1.58590000      -0.50330000
H        0.03620000       2.02000000      -1.13050000
H        0.39720000       2.24620000       0.58350000
H       -0.99480000       0.21820000       0.27490000
H        1.27940000      -0.90690000      -1.45670000
H       -0.27750000      -1.69260000      -1.11660000
H       -0.22080000      -0.23330000      -2.10530000
H        1.38230000      -2.25180000       2.30570000
H        1.17350000      -2.43920000       0.49160000
H        2.20760000       1.07330000       3.29820000
H        0.96740000       0.75400000       4.54800000
H        1.92980000      -0.57270000       3.82260000
