14
Properties=species:S:1:pos:R:3 gdb_28079=T pbc="F F F"
N        0.02890000       1.32380000       0.14630000
C       -0.05590000      -0.03580000       0.04060000
N       -1.13730000      -0.75980000      -0.01590000
C       -0.64600000      -2.05420000      -0.03220000
O       -1.43430000      -3.15260000      -0.10240000
C       -2.78600000      -3.01060000       0.01260000
N       -3.50050000      -4.04450000      -0.07480000
C        0.70370000      -2.06050000       0.00840000
O        1.09600000      -0.72380000       0.05480000
H        0.88780000       1.73000000      -0.19280000
H       -0.80540000       1.80910000      -0.14560000
H       -3.09690000      -1.97750000       0.17180000
H       -4.48060000      -3.79050000       0.03300000
H        1.47650000      -2.80450000       0.00670000
