21
Properties=species:S:1:pos:R:3 gdb_114812=T pbc="F F F"
C       -0.20000000       1.71700000       0.16570000
C       -0.09680000       0.20430000       0.39000000
C       -1.34810000      -0.54240000      -0.05690000
C       -1.65210000      -0.68700000      -1.58800000
C       -1.80410000      -2.21470000      -1.41480000
O       -0.56850000      -2.91800000      -1.67100000
C       -0.19020000      -2.90270000      -0.27870000
C       -1.43800000      -2.08200000       0.10570000
O       -2.18750000      -2.46880000       1.21250000
H        0.71340000       2.22900000       0.48370000
H       -0.36070000       1.95080000      -0.89230000
H       -1.03670000       2.14370000       0.72970000
H        0.77750000      -0.17990000      -0.15070000
H        0.08150000       0.00150000       1.45410000
H       -2.22150000      -0.12490000       0.45580000
H       -2.55450000      -0.16810000      -1.91930000
H       -0.82540000      -0.42860000      -2.25470000
H       -2.67730000      -2.72380000      -1.83090000
H       -0.19550000      -3.91630000       0.15240000
H        0.79730000      -2.45790000      -0.11030000
H       -2.23460000      -3.43120000       1.23600000
