16
Properties=species:S:1:pos:R:3 gdb_28597=T pbc="F F F"
N        0.22590000       1.26190000      -0.17150000
C       -0.00140000      -0.08570000      -0.04970000
N       -1.06060000      -0.68280000       0.39670000
C       -0.70150000      -2.03110000       0.39130000
C        0.55710000      -2.18040000      -0.07850000
O        1.03080000      -0.90350000      -0.36780000
C        1.45030000      -3.31350000      -0.31690000
C        2.50700000      -3.26170000      -1.36550000
N        2.88260000      -3.25030000       0.05570000
H        0.84840000       1.52240000      -0.92250000
H       -0.62720000       1.80130000      -0.15250000
H       -1.38510000      -2.79720000       0.72150000
H        0.98470000      -4.26980000      -0.09540000
H        2.77270000      -4.16690000      -1.90450000
H        2.59810000      -2.34300000      -1.93750000
H        3.10640000      -2.29840000       0.33830000
