19
Properties=species:S:1:pos:R:3 gdb_40981=T pbc="F F F"
C        0.07180000       1.55110000       0.39570000
C        1.33230000       1.92420000      -0.42090000
C        2.04600000       0.58380000      -0.77220000
O        2.45510000       0.56950000      -2.15460000
C        3.84360000       0.28490000      -2.27600000
C        4.34080000       0.14800000      -0.86490000
C        3.33080000       0.31920000      -0.02190000
C        0.96590000      -0.44510000      -0.49830000
C       -0.08550000       0.07270000       0.13050000
H        0.21010000       1.74050000       1.46890000
H       -0.81190000       2.12750000       0.09850000
H        1.05080000       2.38270000      -1.37230000
H        1.99280000       2.62150000       0.10040000
H        3.99240000      -0.63590000      -2.86290000
H        4.34690000       1.09820000      -2.82250000
H        5.37470000      -0.05450000      -0.61490000
H        3.36480000       0.27920000       1.05960000
H        1.10220000      -1.48300000      -0.77970000
H       -0.96000000      -0.48490000       0.44910000
