18
Properties=species:S:1:pos:R:3 gdb_30384=T pbc="F F F"
C       -0.17590000       1.43370000       0.06400000
N       -0.13800000      -0.01410000       0.09860000
C        0.61690000      -0.61130000       0.94310000
C        0.64750000      -2.07390000       0.96940000
C        1.42320000      -2.74850000       1.83680000
C        1.52950000      -4.23750000       1.94780000
N        2.20550000      -2.00530000       2.71930000
C        2.16240000      -0.63750000       2.67850000
N        1.44710000       0.05990000       1.87910000
H        0.47400000       1.92460000       0.79660000
H        0.10260000       1.77600000      -0.94150000
H       -1.20860000       1.76960000       0.22590000
H        0.02040000      -2.60170000       0.26230000
H        2.55760000      -4.57710000       1.77080000
H        1.23790000      -4.58360000       2.94720000
H        0.87990000      -4.72020000       1.21640000
H        2.80070000      -2.46950000       3.38530000
H        2.80690000      -0.14210000       3.40490000
