20
Properties=species:S:1:pos:R:3 gdb_79069=T pbc="F F F"
C       -0.10260000       1.59790000      -0.03310000
C        0.09000000       0.09580000       0.05510000
N        1.02560000      -0.53370000      -0.91880000
C        2.45860000      -0.54970000      -0.33430000
C        2.82270000       0.35400000       0.78340000
C        1.89820000       0.25730000       1.74820000
C        0.78320000      -0.64560000       1.28570000
C       -0.10080000      -1.28160000       2.33720000
C        1.43280000      -1.49610000       0.14650000
H        0.82840000       2.14210000       0.13650000
H       -0.46850000       1.85420000      -1.03310000
H       -0.84500000       1.94080000       0.69620000
H       -0.86860000      -0.40910000      -0.11100000
H        3.16670000      -0.82590000      -1.10560000
H        3.67740000       1.01840000       0.76370000
H        1.83440000       0.86570000       2.64320000
H       -0.59670000      -0.51960000       2.94900000
H       -0.88020000      -1.90050000       1.88000000
H        0.48180000      -1.91860000       3.01170000
H        1.41520000      -2.57470000       0.01730000
