19
Properties=species:S:1:pos:R:3 gdb_108656=T pbc="F F F"
C       -0.18950000       1.57500000       0.01610000
C        0.03880000       0.05330000       0.03940000
C        0.75900000      -0.45550000      -1.17260000
C        2.02330000      -0.90580000      -1.30020000
N        3.00110000      -1.09910000      -0.35130000
C        2.26050000      -1.31470000      -2.73050000
O        1.03810000      -1.03700000      -3.39960000
C        0.12580000      -0.53650000      -2.48700000
N       -1.06400000      -0.20980000      -2.78230000
H        0.76100000       2.11850000      -0.01410000
H       -0.76960000       1.85040000      -0.86760000
H       -0.73860000       1.89910000       0.90590000
H        0.58620000      -0.22980000       0.94770000
H       -0.93510000      -0.44630000       0.09780000
H        2.87690000      -0.60310000       0.51880000
H        3.95500000      -1.06760000      -0.67920000
H        3.07480000      -0.74540000      -3.20210000
H        2.49940000      -2.38320000      -2.82000000
H       -1.24630000      -0.37150000      -3.77290000
