17
Properties=species:S:1:pos:R:3 gdb_111451=T pbc="F F F"
O        0.10990000       1.35370000      -0.10370000
C        0.01650000      -0.05690000       0.03100000
C       -1.44040000      -0.54140000       0.08290000
C       -2.25290000      -0.14800000      -1.15530000
O       -1.73570000      -0.64510000      -2.39710000
C       -2.81720000      -1.35200000      -1.78800000
C       -2.38660000      -2.55610000      -0.96520000
O       -0.97620000      -2.77100000      -0.94450000
C       -1.56440000      -2.06680000       0.15580000
H       -0.02220000       1.56590000      -1.03270000
H        0.53040000      -0.57920000      -0.78390000
H        0.52350000      -0.31180000       0.96770000
H       -1.92970000      -0.10460000       0.96250000
H       -2.72180000       0.83160000      -1.20960000
H       -3.75120000      -1.37030000      -2.34210000
H       -3.01030000      -3.44430000      -0.92280000
H       -1.49580000      -2.57470000       1.11550000
