23
Properties=species:S:1:pos:R:3 gdb_115916=T pbc="F F F"
C        0.07440000       1.56150000      -0.03580000
C       -0.00320000       0.03380000       0.02190000
C        0.68790000      -0.56150000       1.24530000
C        0.56590000      -2.08440000       1.33410000
C        1.21510000      -2.59960000       2.62950000
C        2.53460000      -1.90980000       2.93510000
C        3.69360000      -1.88880000       1.96080000
C        2.88380000      -0.63980000       2.20090000
O        2.06670000      -0.19460000       1.15620000
H        1.11550000       1.89280000      -0.03820000
H       -0.41240000       1.94720000      -0.93670000
H       -0.42050000       2.01490000       0.83060000
H       -1.05060000      -0.29170000       0.02970000
H        0.45670000      -0.39860000      -0.87540000
H        0.25230000      -0.11580000       2.15810000
H       -0.48810000      -2.38190000       1.30380000
H        1.04820000      -2.51870000       0.44970000
H        0.52870000      -2.39720000       3.46180000
H        1.34360000      -3.68800000       2.59250000
H        2.81670000      -1.93470000       3.98400000
H        4.70060000      -1.95140000       2.35900000
H        3.55850000      -2.35600000       0.99120000
H        3.33720000       0.18020000       2.75420000
