10
Properties=species:S:1:pos:R:3 gdb_684=T pbc="F F F"
O        0.01580000       0.01930000      -0.04740000
C        0.00760000       1.20850000       0.04270000
C       -1.12790000       2.28220000       0.11240000
C       -0.01240000       3.32100000      -0.06860000
O        0.85410000       3.16660000       1.04630000
C        1.06890000       2.30090000      -0.08950000
H       -1.80570000       2.16820000      -0.73890000
H       -1.69660000       2.36170000       1.04050000
H       -0.03590000       4.27750000      -0.57500000
H        2.05420000       2.29350000      -0.53970000
