18
Properties=species:S:1:pos:R:3 gdb_74011=T pbc="F F F"
C       -0.00780000       1.51810000       0.20810000
C       -0.00570000       0.03860000       0.01650000
C       -1.00740000      -0.80680000      -0.24050000
C       -2.46240000      -1.17960000      -0.50690000
C       -1.94770000      -2.66520000      -0.62860000
N       -0.59970000      -2.13820000      -0.35380000
C        0.75360000      -2.31080000      -0.18190000
O        1.40630000      -3.32680000      -0.22320000
C        1.23670000      -0.84880000       0.08310000
H        0.62880000       2.02550000      -0.52870000
H       -1.01770000       1.92780000       0.11230000
H        0.37410000       1.80170000       1.19770000
H       -3.15110000      -1.00170000       0.32140000
H       -2.89180000      -0.76830000      -1.42260000
H       -2.31690000      -3.35580000       0.13400000
H       -2.05190000      -3.11990000      -1.61710000
H        1.99370000      -0.58590000      -0.66580000
H        1.73850000      -0.81420000       1.05780000
