19
Properties=species:S:1:pos:R:3 gdb_78702=T pbc="F F F"
O        0.24640000       1.43770000      -0.16850000
C        0.09590000       0.04510000      -0.06580000
C        0.05880000      -0.63460000       1.31760000
C       -1.46420000      -0.27640000       1.53220000
C       -1.31050000      -0.58430000      -0.00900000
C       -0.75720000      -1.84920000       0.74290000
C       -1.81310000      -1.72820000       1.83740000
C       -2.01850000      -2.46200000       3.11930000
C       -3.11490000      -2.42170000       2.05710000
H       -0.35020000       1.85400000       0.46320000
H        0.78730000      -0.38730000      -0.79590000
H        0.82180000      -0.68510000       2.09560000
H       -1.87110000       0.62930000       1.98660000
H       -2.11310000      -0.57730000      -0.74770000
H       -0.33680000      -2.74040000       0.27520000
H       -1.49780000      -3.40240000       3.27200000
H       -2.17560000      -1.89070000       4.02910000
H       -3.99710000      -1.82380000       2.26430000
H       -3.31920000      -3.33550000       1.50750000
