21
Properties=species:S:1:pos:R:3 gdb_52694=T pbc="F F F"
C        0.13000000       1.45400000       0.07140000
C        0.02170000       0.00250000       0.01730000
C       -0.06820000      -1.19840000      -0.01370000
C       -0.18560000      -2.65530000      -0.07700000
C       -1.65740000      -3.09180000      -0.22620000
C        0.69380000      -3.21790000      -1.21250000
C        0.93100000      -4.72150000      -1.12960000
C        1.58650000      -5.35900000      -2.34200000
O        0.63030000      -5.36960000      -0.15260000
H        0.73830000       1.84100000      -0.75390000
H       -0.85480000       1.93010000       0.00580000
H        0.59470000       1.78530000       1.00680000
H        0.19340000      -3.08510000       0.85840000
H       -2.07990000      -2.71200000      -1.16220000
H       -1.72990000      -4.18170000      -0.21760000
H       -2.25880000      -2.69810000       0.59710000
H        0.27130000      -2.96700000      -2.19400000
H        1.68230000      -2.73910000      -1.19380000
H        2.47900000      -4.80120000      -2.64480000
H        1.84800000      -6.39480000      -2.12220000
H        0.89330000      -5.33310000      -3.19110000
