17
Properties=species:S:1:pos:R:3 gdb_111192=T pbc="F F F"
O        0.09640000       1.44110000      -0.12500000
C        0.08900000       0.04170000       0.12920000
C       -1.32130000      -0.52190000       0.08200000
C       -1.98580000      -0.85360000      -1.29130000
N       -1.00910000      -2.00440000      -1.41100000
C       -1.54210000      -2.06100000       0.00780000
C       -2.98780000      -1.79700000      -0.54110000
C       -4.02800000      -1.25400000       0.31920000
N       -4.86080000      -0.82870000       0.99950000
H       -0.06380000       1.57010000      -1.06490000
H        0.74460000      -0.50480000      -0.55680000
H        0.48610000      -0.07620000       1.14360000
H       -1.97190000       0.00690000       0.78150000
H       -2.21640000      -0.19310000      -2.12830000
H       -1.42370000      -2.75680000      -1.96950000
H       -1.24040000      -2.83460000       0.71450000
H       -3.38680000      -2.60720000      -1.15790000
