19
Properties=species:S:1:pos:R:3 gdb_30655=T pbc="F F F"
C       -0.41410000       1.57820000       0.20110000
C       -0.46920000       0.05620000       0.34530000
C        0.84990000      -0.54050000       0.84810000
O        1.25300000       0.00970000       2.11050000
C        0.81410000      -2.03820000       0.92710000
C        0.01620000      -3.02100000       0.39320000
N        0.45000000      -4.27090000       0.77410000
C        1.49860000      -4.05320000       1.53470000
N        1.76580000      -2.72350000       1.65510000
H        0.32820000       1.87660000      -0.54730000
H       -1.38290000       1.97850000      -0.11080000
H       -0.13540000       2.04700000       1.14850000
H       -1.27010000      -0.23490000       1.03820000
H       -0.71420000      -0.40700000      -0.61770000
H        1.65500000      -0.22470000       0.16950000
H        0.56910000      -0.22190000       2.75080000
H       -0.84290000      -2.90180000      -0.24920000
H        2.09420000      -4.80880000       2.02510000
H        2.47640000      -2.27950000       2.21380000
