22
Properties=species:S:1:pos:R:3 gdb_22357=T pbc="F F F"
C       -0.43570000       1.48800000      -0.06720000
C       -0.01370000       0.02320000       0.02100000
C        0.91700000      -0.44600000      -1.11810000
C        1.52510000      -1.71640000      -0.56820000
C        1.33190000      -1.78110000       0.93280000
C        0.74130000      -0.40320000       1.31500000
C        1.83760000       0.57760000       1.75310000
N        2.07190000      -2.58050000      -1.32450000
O        2.54990000      -3.67700000      -0.57580000
H        0.43090000       2.15680000      -0.08540000
H       -1.01250000       1.67270000      -0.97950000
H       -1.06270000       1.77420000       0.78430000
H       -0.92060000      -0.59570000      -0.02570000
H        0.40550000      -0.60500000      -2.07040000
H        1.70170000       0.30180000      -1.29830000
H        0.63950000      -2.60010000       1.16500000
H        2.26680000      -2.01950000       1.44890000
H        0.02920000      -0.50520000       2.14130000
H        2.59030000       0.72770000       0.97070000
H        1.42620000       1.55740000       2.01250000
H        2.35900000       0.19320000       2.63570000
H        2.92580000      -4.23850000      -1.26170000
