13
Properties=species:S:1:pos:R:3 gdb_2286=T pbc="F F F"
O       -0.17530000       0.01000000      -0.06750000
C       -0.08950000       1.19880000      -0.07200000
O        1.06700000       1.84700000       0.18750000
C        1.07410000       3.26380000       0.15900000
C        1.74120000       3.94630000       1.36710000
O        2.63130000       4.67380000       0.49600000
C        2.21670000       3.90330000      -0.65070000
H       -0.92840000       1.89030000      -0.28420000
H        0.07780000       3.64580000      -0.08390000
H        1.11970000       4.61080000       1.97630000
H        2.27150000       3.23570000       2.01340000
H        2.97290000       3.17230000      -0.96310000
H        1.93890000       4.53680000      -1.49960000
