19
Properties=species:S:1:pos:R:3 gdb_106935=T pbc="F F F"
C       -0.33340000       1.30530000      -0.09930000
O        0.26500000       0.03340000       0.08580000
C        0.79980000      -0.51320000      -1.07150000
C       -0.10820000      -1.16420000      -2.06290000
C        0.83290000      -2.02110000      -1.20140000
C        2.13820000      -2.38960000      -1.82630000
O        2.63850000      -3.48640000      -1.84770000
C        2.77610000      -1.10500000      -2.38430000
C        2.12150000       0.05190000      -1.60030000
H        0.40080000       2.06540000      -0.39940000
H       -1.13000000       1.26980000      -0.85560000
H       -0.76440000       1.59350000       0.86170000
H       -1.15290000      -1.24150000      -1.78370000
H        0.07530000      -1.07660000      -3.12890000
H        0.39070000      -2.67950000      -0.46540000
H        3.86170000      -1.15290000      -2.28270000
H        2.56010000      -1.04600000      -3.45790000
H        1.98520000       0.95270000      -2.20670000
H        2.73660000       0.32250000      -0.73560000
