12
Properties=species:S:1:pos:R:3 gdb_3877=T pbc="F F F"
N        0.03800000       1.36580000       0.14290000
C        0.00890000      -0.02390000       0.06560000
N       -1.04420000      -0.78850000       0.08790000
N       -0.59310000      -2.11420000       0.07920000
C        0.70760000      -2.07750000       0.05170000
N        1.57850000      -3.16190000       0.11230000
N        1.15990000      -0.77770000       0.02830000
H        0.52090000       1.79980000      -0.63680000
H       -0.91300000       1.71410000       0.18260000
H        1.03740000      -4.01840000       0.14350000
H        2.22300000      -3.20170000      -0.67020000
H        2.09670000      -0.46020000       0.21130000
