20
Properties=species:S:1:pos:R:3 gdb_118199=T pbc="F F F"
C        0.47230000       1.81070000      -0.53330000
N        0.20180000       0.43480000      -0.11720000
H       -1.39980000      -0.10260000       0.68600000
C        0.59000000      -0.52650000      -1.16150000
C        0.10910000      -1.96480000      -0.93750000
O       -1.29580000      -2.10340000      -1.01050000
C        0.73580000       0.11000000       1.20750000
C       -0.28200000      -0.68850000       2.03900000
O       -1.52230000      -0.63760000       1.51080000
O       -0.01630000      -1.27300000       3.05080000
H        1.54450000       2.00330000      -0.70460000
H       -0.06320000       2.02130000      -1.46300000
H        0.11390000       2.50670000       0.23000000
H        0.15880000      -0.17440000      -2.10390000
H        1.68890000      -0.54280000      -1.28510000
H        0.53790000      -2.57190000      -1.74380000
H        0.50910000      -2.37120000       0.00240000
H       -1.65440000      -2.01350000      -0.12060000
H        1.68010000      -0.44880000       1.18090000
H        0.93320000       1.03340000       1.76120000
