16
Properties=species:S:1:pos:R:3 gdb_49490=T pbc="F F F"
O       -0.68470000       0.82760000       0.57170000
C        0.18080000       1.00450000      -0.24820000
C        1.32360000       1.97440000      -0.11730000
C        1.14350000       3.47080000      -0.58670000
C        0.27090000       3.71300000       0.67840000
C        1.49070000       2.85740000       1.16080000
C        2.38570000       3.79860000       0.28880000
C        1.76890000       2.39470000       2.49700000
N        2.01030000       2.03390000       3.56850000
H        0.19120000       0.42890000      -1.20220000
H        2.24380000       1.50850000      -0.48810000
H        0.94680000       3.80410000      -1.60390000
H        0.24610000       4.73950000       1.04930000
H       -0.70350000       3.23320000       0.73180000
H        3.34730000       3.39310000      -0.03340000
H        2.47220000       4.82760000       0.64310000
