20
Properties=species:S:1:pos:R:3 gdb_6545=T pbc="F F F"
C       -0.25140000       1.45250000      -0.06380000
C        0.05860000      -0.05000000       0.05820000
C        0.86320000      -0.34850000       1.32530000
O       -1.16580000      -0.76570000       0.18820000
C        0.79700000      -0.55830000      -1.19970000
C        2.03680000       0.17880000      -1.65470000
C        0.60790000      -1.95980000      -1.59770000
O       -0.11270000      -0.90610000      -2.26420000
H        0.65210000       2.06870000      -0.03920000
H       -0.78360000       1.66120000      -0.99800000
H       -0.89380000       1.75040000       0.76880000
H        0.28320000      -0.04970000       2.20310000
H        1.07260000      -1.41870000       1.40360000
H        1.81000000       0.19800000       1.33870000
H       -1.54600000      -0.79140000      -0.70130000
H        2.80700000       0.17240000      -0.87700000
H        2.44890000      -0.29470000      -2.54910000
H        1.81060000       1.22040000      -1.89850000
H        1.36630000      -2.44940000      -2.20640000
H       -0.00550000      -2.61320000      -0.98360000
