17
Properties=species:S:1:pos:R:3 gdb_37790=T pbc="F F F"
C        0.10550000       1.44190000       0.34870000
C        1.26500000       2.23910000      -0.18290000
C        2.17940000       1.84170000      -1.06180000
C        2.19250000       0.46410000      -1.68900000
O        2.30380000      -0.56110000      -0.70270000
C        1.00040000      -1.00650000      -0.43200000
C       -0.08710000       0.01510000      -0.14290000
C        0.14130000      -0.50430000      -1.55280000
O        0.99150000       0.20600000      -2.41490000
H        0.18100000       1.42300000       1.44660000
H       -0.81710000       2.00640000       0.14440000
H        1.33190000       3.24890000       0.21820000
H        2.97230000       2.51840000      -1.36630000
H        3.03330000       0.35780000      -2.38100000
H        0.98660000      -2.00380000      -0.01000000
H       -0.95710000      -0.45710000       0.31230000
H       -0.60820000      -1.07160000      -2.09070000
