14
Properties=species:S:1:pos:R:3 gdb_18861=T pbc="F F F"
O        0.02510000       1.31600000       0.12780000
C        0.01070000      -0.08660000       0.00180000
C       -1.45640000      -0.50940000      -0.11960000
C       -1.35190000      -0.59350000      -1.59730000
C        0.20550000      -0.59360000      -1.47880000
N        0.60920000      -2.00510000      -1.37210000
C       -0.42930000      -2.59250000      -0.93510000
N       -1.64160000      -1.81950000      -0.83470000
H        0.94030000       1.60850000       0.06470000
H        0.64380000      -0.57910000       0.75140000
H       -2.26420000      -0.19150000       0.52730000
H       -2.01110000      -0.27440000      -2.39550000
H        0.83310000       0.00310000      -2.13710000
H       -0.46710000      -3.63970000      -0.65450000
