15
Properties=species:S:1:pos:R:3 gdb_5400=T pbc="F F F"
C        0.06410000       1.40020000       0.00710000
O       -0.00250000      -0.01560000       0.00320000
C       -1.22780000      -0.59880000       0.01090000
C       -2.44750000       0.08660000       0.02240000
N       -3.63220000      -0.53280000       0.02960000
C       -3.64700000      -1.86400000       0.02560000
C       -2.48450000      -2.63620000       0.01430000
C       -1.25670000      -1.99620000       0.00680000
H        1.12550000       1.65250000      -0.00030000
H       -0.41590000       1.82960000      -0.88130000
H       -0.40220000       1.82400000       0.90540000
H       -2.47880000       1.17130000       0.02600000
H       -4.62530000      -2.33760000       0.03170000
H       -2.54440000      -3.71920000       0.01140000
H       -0.31960000      -2.54180000      -0.00210000
