18
Properties=species:S:1:pos:R:3 gdb_67890=T pbc="F F F"
C        0.02140000       1.41440000       0.03560000
C       -0.00750000      -0.09920000       0.01450000
N        1.07510000      -0.64440000      -0.77170000
C        0.87870000      -1.73990000      -1.37730000
O       -0.19280000      -2.56540000      -1.29010000
C       -1.05820000      -2.25750000      -0.18820000
C       -0.34960000      -2.28130000       1.20410000
C       -0.52160000      -0.76600000       1.27800000
C       -1.35450000      -0.76640000      -0.01400000
H        0.97280000       1.76510000       0.44660000
H       -0.07260000       1.81490000      -0.97840000
H       -0.79350000       1.81950000       0.64320000
H        1.61490000      -2.13830000      -2.07260000
H       -1.91520000      -2.92000000      -0.29240000
H       -0.94770000      -2.81210000       1.94870000
H        0.67050000      -2.67540000       1.21540000
H       -0.68950000      -0.18820000       2.17890000
H       -2.27590000      -0.25990000      -0.27060000
