15
Properties=species:S:1:pos:R:3 gdb_24991=T pbc="F F F"
O        0.04970000       0.03040000       0.08030000
C       -0.03900000       1.22380000       0.07370000
N       -1.15560000       2.03760000       0.01040000
C       -0.73700000       3.37220000      -0.17800000
C        0.59180000       3.34110000      -0.04230000
N        1.20390000       4.54750000       0.27360000
C        0.11840000       5.53510000      -0.02710000
C       -1.22890000       4.75360000       0.13810000
O        1.08300000       2.08330000       0.10360000
H       -2.02820000       1.63340000      -0.28630000
H        2.06940000       4.74340000      -0.21810000
H        0.19530000       6.39360000       0.64230000
H        0.19940000       5.88760000      -1.06280000
H       -2.00110000       5.15910000      -0.52260000
H       -1.60420000       4.82240000       1.16950000
