19
Properties=species:S:1:pos:R:3 gdb_62825=T pbc="F F F"
C       -0.13360000       1.54990000       0.00240000
C        0.02230000       0.03470000       0.00580000
O       -1.25490000      -0.56040000      -0.12840000
C        1.21160000      -0.65090000      -0.75960000
C        2.15980000      -0.15720000       0.37470000
C        0.89530000      -0.68240000       1.10390000
C        0.94950000      -1.90980000       0.12130000
C        0.62170000      -0.71480000       2.56660000
O        1.36780000      -0.27540000       3.40830000
H        0.80070000       2.09130000       0.14800000
H       -0.54940000       1.87370000      -0.96080000
H       -0.83500000       1.85330000       0.78540000
H       -1.72990000      -0.09630000      -0.82480000
H        1.40530000      -0.62910000      -1.83350000
H        3.05710000      -0.75910000       0.52610000
H        2.39100000       0.90440000       0.44390000
H        0.02230000      -2.45120000      -0.04600000
H        1.80350000      -2.57430000       0.26800000
H       -0.35070000      -1.18030000       2.84500000
