17
Properties=species:S:1:pos:R:3 gdb_34012=T pbc="F F F"
N       -0.04630000      -1.13640000      -0.56780000
C       -0.03670000      -0.01610000      -0.27440000
C       -0.00500000       1.37030000       0.08840000
C        0.39910000       2.37860000      -1.00460000
C        1.37440000       2.11590000       0.08080000
N        1.65160000       3.06140000       1.11280000
C        0.48580000       3.82210000       1.59410000
C       -0.72400000       2.95240000       1.84090000
C       -0.92920000       1.82100000       1.16190000
H        0.62020000       1.97040000      -1.98380000
H       -0.16590000       3.30280000      -1.01590000
H        2.23010000       1.49820000      -0.16870000
H        2.05970000       2.56280000       1.89770000
H        0.78480000       4.33100000       2.51560000
H        0.26500000       4.62160000       0.87400000
H       -1.42250000       3.25550000       2.61490000
H       -1.77480000       1.17860000       1.38410000
