17
Properties=species:S:1:pos:R:3 gdb_91853=T pbc="F F F"
O       -0.62110000       1.20020000       0.85780000
C       -0.02680000       0.14440000       0.10500000
C        0.83920000      -0.80630000       0.96600000
N       -0.00220000      -1.91280000       1.45800000
C       -1.26260000      -1.49070000       2.07660000
C       -1.23960000      -1.88660000       0.63410000
C       -1.15940000      -0.76510000      -0.40230000
C       -1.79280000      -3.15040000       0.21360000
N       -2.26400000      -4.14340000      -0.14510000
H        0.08470000       1.75850000       1.20000000
H        0.55140000       0.56070000      -0.73020000
H        1.63590000      -1.24820000       0.35770000
H        1.30680000      -0.28630000       1.80860000
H       -1.65520000      -2.19340000       2.80480000
H       -1.42320000      -0.43860000       2.28760000
H       -2.09100000      -0.20470000      -0.50260000
H       -0.90680000      -1.18860000      -1.37810000
