15
Properties=species:S:1:pos:R:3 gdb_61743=T pbc="F F F"
C        0.20690000       1.79530000      -0.12060000
C       -0.08450000       0.33800000       0.24170000
O       -1.47290000       0.21380000       0.44080000
C       -1.92170000      -0.91390000       1.05090000
N       -3.15720000      -1.06740000       1.22660000
C        0.39440000      -0.62470000      -0.85130000
O       -0.30630000      -1.41620000      -1.42180000
C        1.84100000      -0.53850000      -1.14950000
N        2.97630000      -0.46820000      -1.35780000
H        1.27510000       1.95120000      -0.28670000
H       -0.34230000       2.07500000      -1.02310000
H       -0.12050000       2.43750000       0.69910000
H        0.47300000       0.07220000       1.15580000
H       -1.11980000      -1.59710000       1.35840000
H       -3.33870000      -1.94610000       1.70690000
