17
Properties=species:S:1:pos:R:3 gdb_30699=T pbc="F F F"
O        0.07860000       1.42260000      -0.04250000
C        0.00920000       0.04980000       0.27050000
C       -1.39920000      -0.49690000      -0.02660000
O       -1.74940000      -0.12690000      -1.35840000
C       -1.47360000      -1.98520000       0.14000000
C       -1.79760000      -2.75900000       1.22250000
N       -1.65280000      -4.06260000       0.79550000
C       -1.26110000      -4.02420000      -0.50630000
N       -1.13960000      -2.78810000      -0.93160000
H       -0.36450000       1.50070000      -0.89830000
H        0.74160000      -0.54150000      -0.30490000
H        0.24620000      -0.06390000       1.33430000
H       -2.11220000       0.00440000       0.63840000
H       -1.47920000      -0.87300000      -1.91360000
H       -2.11270000      -2.51740000       2.22360000
H       -1.82330000      -4.88920000       1.34360000
H       -1.08600000      -4.91770000      -1.08630000
