18
Properties=species:S:1:pos:R:3 gdb_40620=T pbc="F F F"
C       -0.14150000       1.12270000      -0.44560000
C        1.20910000       1.01300000       0.17610000
N        0.30530000      -0.13240000       0.14260000
C       -0.22940000      -0.62720000       1.37650000
C       -1.11350000       0.27660000       2.35400000
O       -2.22350000       0.08100000       1.42100000
C       -1.66470000      -1.26700000       1.30200000
C       -1.81190000      -1.80170000       2.72890000
C       -1.42750000      -0.74140000       3.44910000
H       -0.90040000       1.69780000       0.07320000
H       -0.24100000       1.11090000      -1.52760000
H        2.10210000       0.93120000      -0.43760000
H        1.35710000       1.51860000       1.12930000
H        0.53900000      -1.22930000       1.86770000
H       -0.90730000       1.31620000       2.60590000
H       -2.01910000      -1.83410000       0.44310000
H       -2.11080000      -2.79450000       3.03050000
H       -1.31200000      -0.61300000       4.51520000
