25
Properties=species:S:1:pos:R:3 gdb_60248=T pbc="F F F"
C       -0.31370000       1.58800000       0.29820000
C       -0.07580000       0.08430000       0.10350000
C        0.97650000      -0.42900000       1.09560000
C       -1.40970000      -0.68430000       0.17850000
C       -1.32460000      -2.17970000      -0.14460000
C       -1.11210000      -3.13510000       1.07260000
C       -2.64060000      -3.40640000       1.10870000
C       -2.71980000      -2.87040000      -0.34100000
O       -3.83470000      -2.12380000      -0.75940000
H        0.61750000       2.15410000       0.19060000
H       -1.03030000       1.97800000      -0.43250000
H       -0.71240000       1.79570000       1.29870000
H        0.32280000      -0.06260000      -0.91100000
H        0.62340000      -0.33000000       2.12960000
H        1.22090000      -1.48120000       0.92550000
H        1.90450000       0.14610000       1.00850000
H       -1.85160000      -0.53420000       1.17570000
H       -2.10270000      -0.22180000      -0.53730000
H       -0.63380000      -2.32490000      -0.98220000
H       -0.54020000      -4.02670000       0.80210000
H       -0.66880000      -2.70140000       1.97080000
H       -2.98950000      -4.42370000       1.30080000
H       -3.15120000      -2.73040000       1.80420000
H       -2.63380000      -3.68810000      -1.06300000
H       -4.00290000      -1.44300000      -0.09970000
