19
Properties=species:S:1:pos:R:3 gdb_113107=T pbc="F F F"
C        0.33700000       1.30920000       0.02710000
O       -0.19790000       0.02640000      -0.21400000
C        0.42280000      -0.64690000      -1.28570000
C        1.76890000      -1.33630000      -0.89790000
C        0.95750000      -2.61570000      -0.59600000
C       -0.21170000      -2.04970000      -1.43160000
O        1.52560000      -3.83200000      -1.06820000
C        1.65160000      -4.86400000      -0.21280000
O        2.11740000      -5.91610000      -0.53140000
H        1.40100000       1.27260000       0.30460000
H        0.23470000       1.96040000      -0.85480000
H       -0.22640000       1.74400000       0.85590000
H        0.44180000      -0.00960000      -2.17960000
H        2.41140000      -1.48860000      -1.76890000
H        2.35130000      -0.89530000      -0.08620000
H        0.70390000      -2.70830000       0.46480000
H       -1.22560000      -2.16200000      -1.04450000
H       -0.15880000      -2.41430000      -2.46000000
H        1.27900000      -4.62570000       0.80310000
