17
Properties=species:S:1:pos:R:3 gdb_128272=T pbc="F F F"
C       -0.00100000       1.44770000      -0.04560000
N       -0.08850000      -0.00690000      -0.09430000
C        0.60640000      -0.65850000      -1.08510000
N        1.22010000      -0.07970000      -2.11090000
C        1.68590000      -1.15680000      -2.80310000
O        2.38210000      -1.01540000      -3.94150000
N        1.42690000      -2.34310000      -2.30180000
N        0.69920000      -2.00210000      -1.17280000
C        0.17660000      -3.02150000      -0.29860000
H        1.01290000       1.81230000       0.16630000
H       -0.30850000       1.85540000      -1.00990000
H       -0.68320000       1.81170000       0.72590000
H       -0.04650000      -0.45630000       0.80820000
H        2.44580000      -0.06670000      -4.10220000
H        0.88660000      -3.29420000       0.49200000
H       -0.75390000      -2.66990000       0.15640000
H       -0.03590000      -3.90820000      -0.89730000
