14
Properties=species:S:1:pos:R:3 gdb_964=T pbc="F F F"
C        0.08360000       1.48570000      -0.05500000
C       -0.06710000       0.00770000      -0.05750000
C       -1.13070000      -0.83240000       0.11800000
N       -2.46280000      -0.50280000       0.42650000
C       -0.61230000      -2.16980000       0.01860000
C        0.71920000      -2.04010000      -0.20610000
O        1.07470000      -0.73500000      -0.24960000
H        0.55990000       1.86120000       0.85990000
H        0.69020000       1.82310000      -0.90270000
H       -0.89560000       1.96820000      -0.13490000
H       -2.67520000       0.47000000       0.24300000
H       -3.12600000      -1.07950000      -0.07680000
H       -1.16830000      -3.09000000       0.11230000
H        1.51590000      -2.75100000      -0.35240000
