15
Properties=species:S:1:pos:R:3 gdb_98728=T pbc="F F F"
O       -0.24740000       1.59410000      -0.18500000
C       -0.98200000       0.57120000      -0.78760000
C       -1.27760000      -0.53860000       0.20360000
O       -0.89440000      -0.45310000       1.35130000
C       -2.08570000      -1.73320000      -0.22080000
N       -2.73090000      -1.70950000      -1.53150000
C       -1.65860000      -2.68170000      -1.31690000
C       -0.44430000      -2.51240000      -2.07950000
N        0.53540000      -2.40820000      -2.68360000
H       -0.10950000       1.31250000       0.73260000
H       -1.94680000       0.93480000      -1.17670000
H       -0.44870000       0.15060000      -1.65410000
H       -2.58220000      -2.21590000       0.61820000
H       -3.63930000      -2.16450000      -1.51260000
H       -1.92040000      -3.72380000      -1.15100000
