22
Properties=species:S:1:pos:R:3 gdb_70603=T pbc="F F F"
C       -0.37020000       1.38400000       0.06940000
C       -0.08000000      -0.09690000       0.03250000
C       -0.37610000      -0.96210000       1.20730000
N        1.01600000      -0.61050000       0.88390000
C        1.70970000      -1.65870000       0.11210000
C        0.78350000      -2.08050000      -1.04770000
C       -0.04630000      -0.80470000      -1.33020000
C       -1.42710000      -1.07870000      -1.92760000
O        0.69350000       0.07850000      -2.18450000
H        0.31490000       1.92830000      -0.58360000
H       -1.39420000       1.59200000      -0.26130000
H       -0.25910000       1.76100000       1.08890000
H       -0.75660000      -0.50140000       2.11490000
H       -0.71440000      -1.98400000       1.05520000
H        2.63030000      -1.21410000      -0.27800000
H        1.98690000      -2.49120000       0.76630000
H        1.33920000      -2.38890000      -1.93770000
H        0.13490000      -2.91650000      -0.76930000
H       -2.03400000      -1.69940000      -1.26220000
H       -1.95850000      -0.14000000      -2.10870000
H       -1.33780000      -1.60550000      -2.88570000
H        0.69850000      -0.30640000      -3.06700000
