23
Properties=species:S:1:pos:R:3 gdb_119058=T pbc="F F F"
C       -1.24930000       1.65080000      -0.62950000
C       -1.25430000       0.17620000      -0.99550000
O       -1.38970000      -0.57540000       0.21370000
C       -1.60490000      -1.95700000       0.02860000
C       -0.50080000      -2.72870000      -0.66500000
C        0.83850000      -2.64850000       0.07720000
C       -2.34390000      -2.58440000       1.19050000
C       -3.06280000      -2.32840000      -0.11750000
O       -4.01930000      -1.31580000      -0.20790000
H       -1.11280000       2.26350000      -1.52550000
H       -2.19180000       1.94080000      -0.15510000
H       -0.43570000       1.86940000       0.06810000
H       -2.08250000      -0.05870000      -1.67790000
H       -0.31660000      -0.08830000      -1.50390000
H       -0.82130000      -3.77360000      -0.74870000
H       -0.38110000      -2.37070000      -1.69510000
H        1.16780000      -1.61030000       0.17720000
H        0.75190000      -3.06350000       1.08650000
H        1.61710000      -3.20480000      -0.45320000
H       -2.09450000      -3.60180000       1.47360000
H       -2.59230000      -1.92670000       2.01710000
H       -3.33810000      -3.17360000      -0.74010000
H       -3.61640000      -0.53230000       0.18760000
