16
Properties=species:S:1:pos:R:3 gdb_55887=T pbc="F F F"
N       -0.20600000       0.39750000       0.92340000
C        0.01530000      -0.00790000      -0.35890000
O        0.87840000       0.46300000      -1.07180000
C       -0.96200000      -1.08690000      -0.84940000
C       -0.99200000      -2.31490000       0.02970000
O       -1.52130000      -2.16290000       1.35240000
C       -2.25140000      -2.99080000       0.42550000
C       -3.54280000      -2.52850000      -0.00300000
C       -4.63260000      -2.17390000      -0.36560000
H        0.43750000       1.05860000       1.32670000
H       -0.84530000      -0.10190000       1.52100000
H       -1.96680000      -0.65600000      -0.90670000
H       -0.64880000      -1.36330000      -1.85840000
H       -0.09870000      -2.93970000      -0.00650000
H       -2.19850000      -4.05250000       0.66300000
H       -5.59560000      -1.85600000      -0.68260000
