20
Properties=species:S:1:pos:R:3 gdb_17889=T pbc="F F F"
C       -0.14020000       1.49310000       0.03040000
C        0.02780000      -0.02130000      -0.00970000
C        0.86970000      -0.58990000      -1.19790000
C        2.13190000      -0.41670000      -0.29970000
C        1.15220000      -0.61670000       0.88920000
O        0.87990000      -1.99030000       1.14020000
C        0.96890000      -2.81180000      -0.02310000
C        0.54710000      -2.08830000      -1.32330000
H        0.80680000       2.02450000      -0.10810000
H       -0.82180000       1.82920000      -0.75880000
H       -0.56050000       1.81380000       0.99010000
H       -0.94100000      -0.50940000       0.14240000
H        0.82820000      -0.07030000      -2.15900000
H        2.96460000      -1.11510000      -0.41030000
H        2.52370000       0.60130000      -0.32390000
H        1.36760000      -0.15790000       1.85760000
H        2.00180000      -3.17240000      -0.13160000
H        0.34330000      -3.68780000       0.17090000
H       -0.52480000      -2.21340000      -1.51580000
H        1.08210000      -2.54230000      -2.16580000
