19
Properties=species:S:1:pos:R:3 gdb_92180=T pbc="F F F"
C       -0.31830000       1.51800000       0.03920000
C        0.06700000       0.03980000      -0.01630000
O        0.73930000      -0.30950000      -1.24180000
C        2.11950000      -0.56700000      -1.07430000
C        2.83120000       0.59980000      -0.33710000
C        2.45950000      -0.12200000       0.97160000
C        2.37900000      -1.46490000       0.22010000
O        1.16880000      -1.86880000       0.85660000
C        0.92730000      -0.45590000       1.13940000
H        0.53960000       2.17600000       0.19590000
H       -0.80370000       1.80520000      -0.89740000
H       -1.02810000       1.68670000       0.85670000
H       -0.85290000      -0.55860000      -0.00880000
H        2.49850000      -0.90200000      -2.04050000
H        3.91620000       0.56420000      -0.48130000
H        2.47720000       1.61000000      -0.54660000
H        3.01100000       0.03170000       1.89900000
H        3.15050000      -2.23530000       0.17120000
H        0.47020000      -0.30010000       2.11970000
