16
Properties=species:S:1:pos:R:3 gdb_25902=T pbc="F F F"
N       -0.00510000       1.40440000       0.08820000
C        0.04460000       0.01940000       0.08000000
N        1.12970000      -0.68140000       0.13430000
H        1.97340000      -0.11170000       0.12670000
H        0.53260000      -2.36960000       0.00020000
C       -1.22370000      -0.69190000       0.05430000
C       -2.52560000      -0.21220000       0.09490000
N       -3.36040000      -1.27930000       0.02650000
C       -2.64190000      -2.46280000      -0.05080000
C       -1.30870000      -2.12570000      -0.03070000
O       -0.25890000      -2.95950000      -0.08240000
H        0.86130000       1.87380000      -0.13120000
H       -0.80440000       1.82290000      -0.36310000
H       -2.91100000       0.78950000       0.19930000
H       -4.36250000      -1.22500000       0.05970000
H       -3.12950000      -3.42010000      -0.11090000
