16
Properties=species:S:1:pos:R:3 gdb_76268=T pbc="F F F"
N        0.01910000       1.36020000       0.18720000
C       -0.05540000       0.01690000       0.07410000
C       -1.15850000      -0.78280000       0.04590000
C       -0.75430000      -2.15340000      -0.16270000
O       -1.39720000      -3.12760000      -0.51470000
C        0.77120000      -2.23430000       0.03640000
O        1.35920000      -3.03880000      -0.96370000
C        1.24770000      -0.76620000      -0.05580000
O        1.86580000      -0.47590000      -1.29160000
H        0.87430000       1.80690000      -0.10500000
H       -0.81690000       1.91310000       0.08300000
H       -2.18930000      -0.45280000       0.04850000
H        0.98270000      -2.64430000       1.03380000
H        0.63650000      -3.60290000      -1.28320000
H        1.93290000      -0.49840000       0.76110000
H        1.91890000      -1.33090000      -1.74910000
