17
Properties=species:S:1:pos:R:3 gdb_68434=T pbc="F F F"
O       -0.10930000       1.39100000      -0.01520000
C       -0.05210000       0.00990000       0.02850000
C        0.37860000      -0.83530000       1.27810000
C       -0.37210000      -1.91730000       0.47100000
C       -1.36430000      -0.81610000       0.02650000
O        0.46740000      -2.10880000      -0.68960000
C        0.75140000      -0.74490000      -1.07710000
C        0.34130000      -0.45770000      -2.44380000
C        0.01940000      -0.19750000      -3.57200000
H        0.78510000       1.74280000      -0.08690000
H        1.44260000      -0.99860000       1.46710000
H       -0.14450000      -0.51650000       2.18080000
H       -0.66950000      -2.88390000       0.86890000
H       -2.04390000      -0.50130000       0.81950000
H       -1.88580000      -0.95240000      -0.92180000
H        1.83030000      -0.55760000      -0.97410000
H       -0.27010000       0.02640000      -4.56910000
