14
Properties=species:S:1:pos:R:3 gdb_130498=T pbc="F F F"
O       -0.02310000       1.31540000       0.00940000
N        1.28100000       1.83620000      -0.00010000
C        2.09570000       0.81940000      -0.01360000
C        1.39930000      -0.43120000      -0.01390000
C        0.05760000      -0.03220000       0.00120000
C       -1.00250000      -0.93430000       0.00630000
C       -0.66050000      -2.27930000      -0.00450000
C        0.68220000      -2.70560000      -0.01970000
C        1.72450000      -1.79310000      -0.02460000
H        3.16050000       1.00670000      -0.02280000
H       -2.03180000      -0.59840000       0.01800000
H       -1.44910000      -3.02430000      -0.00110000
H        0.89800000      -3.76820000      -0.02760000
H        2.75750000      -2.12270000      -0.03630000
