23
Properties=species:S:1:pos:R:3 gdb_86193=T pbc="F F F"
C        0.70520000       1.70560000      -0.04710000
C        0.18530000       0.26290000       0.00870000
C        0.63150000      -0.58620000      -1.19830000
O        0.56100000       0.15920000      -2.40210000
C        2.05500000      -1.07920000      -0.83380000
C        2.14800000      -1.03130000       0.71570000
O        3.10780000      -0.07890000       1.17210000
C        0.73970000      -0.58260000       1.18190000
C        0.69310000       0.05080000       2.57090000
H        1.79610000       1.74430000      -0.00170000
H        0.37870000       2.18730000      -0.97130000
H        0.31740000       2.28500000       0.79620000
H       -0.90960000       0.29330000       0.05200000
H       -0.04020000      -1.45750000      -1.26300000
H        0.80980000      -0.42040000      -3.12820000
H        2.26330000      -2.07460000      -1.23960000
H        2.78670000      -0.38450000      -1.25850000
H        2.39270000      -2.01700000       1.13730000
H        3.97200000      -0.35550000       0.85250000
H        0.13610000      -1.50140000       1.21090000
H        1.32780000       0.93640000       2.62960000
H       -0.33150000       0.33930000       2.82880000
H        1.04220000      -0.65530000       3.33180000
