16
Properties=species:S:1:pos:R:3 gdb_101972=T pbc="F F F"
C       -0.33450000       1.56660000       0.08320000
C       -0.05870000       0.06540000      -0.02650000
C        0.71090000      -0.34050000      -1.32220000
C        2.15130000       0.21720000      -1.28900000
O        2.82910000       0.14570000      -0.30040000
C        0.85930000      -1.88660000      -1.28370000
O        0.39300000      -2.63670000      -2.08780000
C        0.02370000       0.08980000      -2.53530000
N       -0.49600000       0.47660000      -3.49160000
H        0.59550000       2.14220000       0.11360000
H       -0.93480000       1.92540000      -0.75740000
H       -0.88480000       1.77440000       1.00480000
H        0.55470000      -0.26940000       0.81470000
H       -0.99800000      -0.49620000      -0.00100000
H        2.52340000       0.64090000      -2.24210000
H        1.44040000      -2.22070000      -0.40020000
