16
Properties=species:S:1:pos:R:3 gdb_124197=T pbc="F F F"
C        0.10990000       1.41890000      -0.53860000
C        0.00700000       0.02490000      -0.13390000
C       -0.08250000      -1.12370000       0.21280000
C       -0.16720000      -2.51860000       0.62260000
N       -1.41220000      -3.16280000       0.20710000
C       -2.06770000      -3.09530000      -0.97470000
C       -3.12460000      -3.95920000      -0.81820000
N       -3.06300000      -4.50370000       0.42790000
N       -2.02380000      -4.02190000       1.04810000
H        0.78970000       1.53950000      -1.38870000
H       -0.86810000       1.81450000      -0.83260000
H        0.48560000       2.03950000       0.28190000
H        0.68080000      -3.08610000       0.21860000
H       -0.13530000      -2.62170000       1.71120000
H       -1.74340000      -2.45530000      -1.77690000
H       -3.91220000      -4.21050000      -1.50970000
