19
Properties=species:S:1:pos:R:3 gdb_86591=T pbc="F F F"
C        0.08440000       1.70950000      -0.11520000
C        0.09100000       0.19460000       0.03220000
C        0.62370000      -0.72050000      -1.11790000
C        1.41520000      -1.58730000      -0.08530000
C        2.83460000      -1.98830000      -0.36270000
C        3.47700000      -3.10850000       0.33420000
O        3.04060000      -3.24390000      -1.01920000
C        1.17020000      -0.44070000       0.92350000
O        1.72830000      -0.09160000       1.92360000
H        1.05920000       2.07500000      -0.45420000
H       -0.66970000       2.03300000      -0.83940000
H       -0.13510000       2.18740000       0.84400000
H       -0.89180000      -0.16190000       0.36800000
H       -0.12120000      -1.24310000      -1.71820000
H        1.29940000      -0.17600000      -1.78430000
H        0.83890000      -2.47180000       0.20960000
H        3.47860000      -1.18790000      -0.73100000
H        4.55540000      -3.10270000       0.48330000
H        2.91060000      -3.67900000       1.06900000
