23
Properties=species:S:1:pos:R:3 gdb_94984=T pbc="F F F"
C       -0.01400000       1.57130000       0.00620000
C       -0.00100000       0.03940000      -0.02400000
C        0.59050000      -0.48170000      -1.34670000
C        0.77100000      -2.01150000      -1.38220000
C        1.19100000      -2.63840000      -0.06110000
C        2.22530000      -2.15200000       0.93410000
C        2.32810000      -0.62980000       1.04170000
C        0.76470000      -0.55130000       1.17070000
C        0.72680000      -2.09280000       1.25440000
H        1.00600000       1.97300000      -0.02210000
H       -0.55420000       1.98240000      -0.85360000
H       -0.49390000       1.94830000       0.91580000
H       -1.04020000      -0.31510000       0.05350000
H       -0.04690000      -0.17230000      -2.18320000
H        1.55680000       0.00790000      -1.51390000
H       -0.18510000      -2.47540000      -1.66200000
H        1.47960000      -2.28040000      -2.17560000
H        1.17630000      -3.72670000      -0.09200000
H        2.96400000      -2.84380000       1.32360000
H        2.80720000      -0.33600000       1.97940000
H        2.81600000      -0.08500000       0.22790000
H        0.45400000      -0.06500000       2.09890000
H        0.15080000      -2.66700000       1.97060000
