15
Properties=species:S:1:pos:R:3 gdb_7706=T pbc="F F F"
N       -0.11780000       0.98400000      -0.84770000
C        0.01730000       0.05640000       0.00020000
C       -1.16900000      -0.50740000       0.74610000
C       -1.15380000      -2.03090000       0.84950000
O       -2.15910000      -2.69350000       0.87420000
C        0.24620000      -2.62910000       0.93590000
C        1.28230000      -1.55460000       1.24910000
O        1.23530000      -0.49370000       0.28660000
H        0.79140000       1.24100000      -1.23820000
H       -1.14330000      -0.13130000       1.78090000
H       -2.09470000      -0.15680000       0.29310000
H        0.25380000      -3.43100000       1.67970000
H        0.47180000      -3.08600000      -0.03620000
H        1.13510000      -1.14740000       2.25870000
H        2.29870000      -1.94870000       1.19430000
