12
Properties=species:S:1:pos:R:3 gdb_886=T pbc="F F F"
C       -0.00970000       1.52110000       0.04960000
C       -0.00500000       0.03710000      -0.04010000
C       -0.06350000      -0.79350000      -1.09010000
O       -0.02880000      -2.10840000      -0.67030000
C        0.05620000      -2.12300000       0.70880000
O        0.10380000      -3.11480000       1.38280000
N        0.06950000      -0.79590000       1.08260000
H        0.90330000       1.89890000       0.52480000
H       -0.07520000       1.95650000      -0.94990000
H       -0.86180000       1.88650000       0.63490000
H       -0.12980000      -0.62090000      -2.14970000
H        0.12610000      -0.51360000       2.04510000
