16
Properties=species:S:1:pos:R:3 gdb_130711=T pbc="F F F"
O        0.01540000      -0.05190000       0.07290000
C        0.02040000       1.16080000       0.07510000
N       -1.03490000       2.05900000       0.10450000
N       -0.66410000       3.39720000       0.11170000
C        0.62810000       3.33120000       0.07200000
C        1.76550000       4.30240000       0.01980000
C        2.97500000       3.38750000       0.38020000
C        2.54600000       1.94200000      -0.00250000
N        1.10040000       2.04610000       0.05300000
H       -2.00520000       1.80710000       0.17130000
H        1.86470000       4.71870000      -0.98920000
H        1.64400000       5.13970000       0.70930000
H        3.89410000       3.68830000      -0.12500000
H        3.15710000       3.43430000       1.45740000
H        2.87610000       1.66360000      -1.01010000
H        2.91550000       1.18710000       0.69510000
