18
Properties=species:S:1:pos:R:3 gdb_9787=T pbc="F F F"
C       -0.03910000       1.52180000       0.36370000
C        0.00580000       0.03300000       0.08580000
C        1.27700000      -0.57510000      -0.45330000
C        0.85360000      -0.84450000       0.97120000
C       -1.30440000      -0.57890000      -0.41160000
O       -2.35270000      -0.46970000       0.55050000
C       -1.71210000      -0.01790000      -1.70590000
C       -2.06340000       0.47680000      -2.74410000
H        0.93390000       1.88190000       0.71000000
H       -0.30690000       2.08560000      -0.53630000
H       -0.77110000       1.75350000       1.14570000
H        1.19650000      -1.38330000      -1.17320000
H        2.11960000       0.08560000      -0.62630000
H        1.40960000      -0.36710000       1.77100000
H        0.48400000      -1.83380000       1.21970000
H       -1.14830000      -1.65790000      -0.53370000
H       -2.73000000       0.41270000       0.47210000
H       -2.37300000       0.89650000      -3.66950000
