20
Properties=species:S:1:pos:R:3 gdb_37130=T pbc="F F F"
C        0.02700000       1.45060000       0.04410000
C        1.35160000       0.73390000       0.05500000
C        0.02440000      -0.05540000       0.06320000
C        0.36450000      -0.60620000      -1.31040000
C       -0.30280000      -0.47160000      -2.66080000
C        0.85700000       0.01710000      -3.58540000
C        1.84850000       0.80790000      -2.67410000
C        1.66060000       0.16460000      -1.31840000
N        1.65570000      -1.30260000      -1.34170000
H       -0.25320000       1.93140000       0.97770000
H       -0.29990000       1.99100000      -0.84050000
H        2.05800000       0.85750000       0.86930000
H       -0.41400000      -0.61260000       0.88450000
H       -0.75710000      -1.39430000      -3.03450000
H       -1.09570000       0.28270000      -2.59580000
H        1.37070000      -0.85090000      -4.00350000
H        0.49360000       0.61940000      -4.42310000
H        2.87280000       0.76450000      -3.05690000
H        1.56490000       1.86510000      -2.61220000
H        1.88720000      -1.68240000      -0.42790000
