18
Properties=species:S:1:pos:R:3 gdb_81051=T pbc="F F F"
C        0.72360000       1.93170000      -0.12150000
C        0.17130000       0.53100000       0.06640000
C        0.74290000      -0.73720000      -0.63250000
C        1.99200000      -0.70430000       0.27740000
C        0.72380000      -0.46090000       1.13700000
O        0.05750000      -1.56440000       0.39630000
C        0.58910000      -0.38870000       2.63250000
N       -0.09160000      -1.43400000       3.16610000
O        1.05890000       0.53940000       3.26380000
H        1.81420000       1.96510000      -0.17060000
H        0.33250000       2.37150000      -1.04520000
H        0.41140000       2.56880000       0.71150000
H       -0.92220000       0.51960000       0.06330000
H        0.64780000      -1.06510000      -1.66770000
H        2.46730000      -1.67210000       0.43900000
H        2.71030000       0.10760000       0.17010000
H       -0.46650000      -2.15410000       2.57160000
H       -0.24970000      -1.46280000       4.15970000
