20
Properties=species:S:1:pos:R:3 gdb_77370=T pbc="F F F"
C       -0.03750000       1.49500000      -0.05240000
C       -0.06440000      -0.00020000      -0.02500000
C        0.53490000      -1.01440000      -0.93570000
N        1.19930000      -0.71970000       0.36600000
C        0.74620000      -2.05200000       0.88840000
C       -0.34190000      -2.10190000      -0.19710000
C       -0.92190000      -3.38050000      -0.73990000
C       -1.25270000      -0.90930000       0.23820000
O       -1.78920000      -0.87220000       1.54150000
H        0.93780000       1.85350000      -0.39170000
H       -0.80790000       1.89020000      -0.72340000
H       -0.21810000       1.90150000       0.94820000
H        1.01030000      -0.94100000      -1.90520000
H        1.54860000      -2.77750000       0.72550000
H        0.42410000      -2.05960000       1.93440000
H       -1.49870000      -3.90270000       0.03360000
H       -1.59300000      -3.19230000      -1.58550000
H       -0.13750000      -4.06440000      -1.08140000
H       -2.02740000      -0.72920000      -0.52160000
H       -2.60190000      -1.38710000       1.55520000
