19
Properties=species:S:1:pos:R:3 gdb_78171=T pbc="F F F"
C       -0.07610000       1.54560000       0.02030000
C        0.05930000       0.03980000      -0.06060000
C        0.73710000      -0.69420000      -1.17970000
C        1.35940000      -0.71400000       0.19910000
C        2.61780000       0.08540000       0.09550000
O        3.46190000       0.26570000       0.92500000
O        2.70440000       0.62990000      -1.15860000
C        1.70690000       0.09000000      -2.05660000
C        2.39230000      -0.76640000      -3.11230000
H        0.80750000       2.06540000      -0.35670000
H       -0.94090000       1.88280000      -0.56160000
H       -0.22920000       1.86040000       1.05720000
H       -0.79900000      -0.49330000       0.34140000
H        0.27330000      -1.57490000      -1.60870000
H        1.36730000      -1.56530000       0.86610000
H        1.22360000       0.95170000      -2.53110000
H        2.86560000      -1.64070000      -2.65450000
H        1.66180000      -1.11270000      -3.85070000
H        3.16130000      -0.18790000      -3.63000000
