18
Properties=species:S:1:pos:R:3 gdb_115039=T pbc="F F F"
C       -0.24330000       1.56800000       0.05160000
C       -0.07370000       0.05130000      -0.06900000
C        0.62510000      -0.55760000       1.14000000
O       -0.18130000      -0.31310000       2.33600000
C       -0.45800000      -1.52180000       2.86100000
N        0.01280000      -2.57290000       2.33080000
C        0.80620000      -2.11660000       1.17920000
C        0.41600000      -2.88980000      -0.07730000
O        0.84580000      -2.64990000      -1.17600000
H        0.72770000       2.06820000       0.13910000
H       -0.74730000       1.97260000      -0.83060000
H       -0.83510000       1.82890000       0.93300000
H       -1.05190000      -0.42960000      -0.19470000
H        0.51230000      -0.20360000      -0.95680000
H        1.58150000      -0.05400000       1.30900000
H       -1.09490000      -1.49610000       3.73860000
H        1.86280000      -2.36500000       1.35050000
H       -0.28700000      -3.72850000       0.11400000
