14
Properties=species:S:1:pos:R:3 gdb_127279=T pbc="F F F"
C        0.07220000       1.42990000       0.02000000
N       -0.05250000      -0.01240000      -0.06610000
C        0.01450000      -0.80920000      -1.16120000
C       -0.18810000      -2.06720000      -0.64420000
O       -0.25460000      -3.22850000      -1.34930000
C        0.17870000      -4.37990000      -0.73830000
O        0.07690000      -5.43370000      -1.27980000
N       -0.36500000      -1.98910000       0.69300000
N       -0.27400000      -0.73160000       1.04500000
H        1.04990000       1.75200000      -0.34730000
H       -0.71370000       1.91760000      -0.56250000
H       -0.03120000       1.69730000       1.07130000
H        0.18670000      -0.44450000      -2.15830000
H        0.60740000      -4.19130000       0.25640000
