19
Properties=species:S:1:pos:R:3 gdb_67701=T pbc="F F F"
O       -0.08450000       1.36160000      -0.08950000
C        0.02000000      -0.01950000      -0.01430000
C       -1.18290000      -0.89810000      -0.00200000
C       -1.03600000      -1.99400000      -1.05770000
C        0.22000000      -1.57120000      -1.86380000
C        1.08890000      -0.81320000      -0.82520000
C        1.64860000      -1.79640000       0.18620000
C        0.89120000      -1.84660000       1.28700000
C       -0.21880000      -0.85650000       1.22130000
H        0.65270000       1.74490000       0.39890000
H       -2.15530000      -0.45520000       0.18190000
H       -0.89100000      -2.97800000      -0.60030000
H       -1.92600000      -2.05930000      -1.68940000
H        0.73730000      -2.41750000      -2.32730000
H       -0.06550000      -0.87490000      -2.66120000
H        1.84200000      -0.17340000      -1.29560000
H        2.49360000      -2.44010000      -0.03090000
H        1.03770000      -2.51930000       2.12450000
H       -0.63150000      -0.41550000       2.12250000
