16
Properties=species:S:1:pos:R:3 gdb_131395=T pbc="F F F"
O       -0.16040000       1.34510000       0.01180000
C       -0.01430000       0.00550000       0.02050000
N       -0.02680000      -0.74100000      -1.07590000
N        0.14850000      -1.97120000      -0.58600000
N        0.27130000      -2.06830000       0.72930000
C        0.17110000      -0.80730000       1.16040000
C        0.24780000      -0.40500000       2.57470000
C       -0.32480000      -1.29600000       3.65940000
C        1.16270000      -1.13990000       3.53440000
H       -0.26860000       1.62270000      -0.90590000
H        0.18510000      -2.77760000      -1.18510000
H        0.14760000       0.66460000       2.71970000
H       -0.83070000      -0.81790000       4.49080000
H       -0.76180000      -2.23330000       3.33440000
H        1.72380000      -1.97240000       3.12540000
H        1.68950000      -0.55340000       4.27890000
