18
Properties=species:S:1:pos:R:3 gdb_80990=T pbc="F F F"
C       -0.02420000       1.53090000       0.03530000
C        0.06390000       0.02930000       0.03170000
C        0.95980000      -0.80520000      -0.94250000
C        0.65620000      -1.93000000       0.10940000
C        0.72040000      -0.78430000       1.18770000
O        2.00260000      -0.29800000       1.49220000
C       -0.86350000      -2.03770000      -0.08070000
O       -1.56930000      -2.99780000      -0.26180000
N       -1.22910000      -0.69460000      -0.01910000
H        0.96830000       1.95840000       0.19770000
H       -0.40730000       1.90850000      -0.91930000
H       -0.68620000       1.88110000       0.83390000
H        0.59200000      -0.94950000      -1.96130000
H        2.00460000      -0.49660000      -0.93480000
H        1.20910000      -2.86350000       0.18380000
H        0.10240000      -0.91510000       2.08480000
H        2.43870000      -0.93250000       2.06960000
H       -2.01410000      -0.35000000      -0.55260000
