17
Properties=species:S:1:pos:R:3 gdb_115137=T pbc="F F F"
O       -0.13030000       1.52460000      -0.26080000
C        0.00600000       0.12320000      -0.24590000
C       -1.32240000      -0.58140000       0.06560000
C       -1.30540000      -2.12770000       0.04200000
C       -2.48860000      -2.57050000       0.93140000
C       -2.60070000      -1.49210000       1.99780000
O       -3.14360000      -1.54260000       3.06670000
C       -1.84180000      -0.24330000       1.45200000
O       -1.68030000       0.78080000       2.06920000
H       -0.47500000       1.77510000       0.60710000
H        0.35920000      -0.17590000      -1.23870000
H        0.76400000      -0.20980000       0.48330000
H       -2.07520000      -0.21110000      -0.64720000
H       -1.36930000      -2.52640000      -0.97220000
H       -0.36370000      -2.48800000       0.47310000
H       -3.42610000      -2.56840000       0.35850000
H       -2.38440000      -3.56270000       1.37510000
