19
Properties=species:S:1:pos:R:3 gdb_6490=T pbc="F F F"
C        0.02640000       1.60880000       0.20400000
C       -0.07800000       0.13050000      -0.12710000
C       -1.36610000      -0.28200000      -0.82520000
C       -2.67330000      -0.03690000      -0.06210000
N       -2.62460000      -0.28700000       1.28010000
O       -3.69430000       0.30730000      -0.62400000
C        1.18610000      -0.58060000      -0.54040000
C        0.58220000      -0.86140000       0.81520000
H        0.98030000       1.83870000       0.68840000
H       -0.04260000       2.21680000      -0.70520000
H       -0.77740000       1.92670000       0.87680000
H       -1.47560000       0.24690000      -1.77660000
H       -1.33090000      -1.35280000      -1.06350000
H       -1.75590000      -0.46990000       1.75080000
H       -3.45200000      -0.10570000       1.82420000
H        1.11850000      -1.35570000      -1.29620000
H        2.10450000      -0.00430000      -0.57760000
H        1.09540000      -0.47590000       1.69040000
H        0.11430000      -1.82970000       0.96560000
