21
Properties=species:S:1:pos:R:3 gdb_63752=T pbc="F F F"
C       -0.30320000       1.53850000      -0.04720000
C       -0.06810000       0.03210000      -0.00580000
O       -1.28850000      -0.67740000      -0.10680000
C        1.09460000      -0.45060000      -0.93140000
C        2.01720000      -0.52030000       0.30910000
C        3.12410000      -1.57370000       0.48150000
O        4.14060000      -0.56060000       0.62630000
C        3.16930000       0.49350000       0.48470000
C        0.76180000      -0.44860000       1.21070000
H        0.62920000       2.09780000       0.08030000
H       -0.73330000       1.83730000      -1.01180000
H       -0.99560000       1.83610000       0.74640000
H       -1.77660000      -0.33230000      -0.86250000
H        0.87280000      -1.44690000      -1.32490000
H        1.40400000       0.20360000      -1.75260000
H        3.03930000      -2.20350000       1.37760000
H        3.30450000      -2.21700000      -0.39040000
H        3.37980000       1.13090000      -0.38510000
H        3.11400000       1.12330000       1.38330000
H        0.80170000       0.20500000       2.08690000
H        0.42810000      -1.44320000       1.51940000
