22
Properties=species:S:1:pos:R:3 gdb_62628=T pbc="F F F"
C       -0.07390000       1.57870000       0.08370000
C        0.02350000       0.07520000       0.06690000
C       -1.25280000      -0.80250000       0.20570000
C       -0.32110000      -1.88550000       0.74340000
C        0.70050000      -0.88760000       1.13190000
N        1.00770000      -1.83810000       0.03360000
C        0.88850000      -0.71450000      -0.97020000
C        0.30180000      -1.11960000      -2.31870000
C        2.27420000      -0.10010000      -1.15820000
H        0.91320000       2.05180000       0.07670000
H       -0.62350000       1.94160000      -0.79320000
H       -0.60690000       1.93100000       0.97340000
H       -1.89340000      -0.42730000       1.00960000
H       -1.86300000      -0.98820000      -0.68330000
H       -0.57240000      -2.82670000       1.21450000
H        1.30700000      -0.74900000       2.01750000
H       -0.61200000      -1.70720000      -2.21780000
H        0.07780000      -0.23600000      -2.92730000
H        1.02490000      -1.72960000      -2.87030000
H        2.95310000      -0.83310000      -1.60430000
H        2.22680000       0.76940000      -1.82220000
H        2.70600000       0.22030000      -0.20560000
