16
Properties=species:S:1:pos:R:3 gdb_31888=T pbc="F F F"
C        0.35160000       1.51160000      -0.09130000
C       -0.01620000       0.03250000       0.11860000
C        0.59620000      -0.55400000       1.34270000
N        0.00260000      -1.01080000       2.40580000
C        1.02920000      -1.42210000       3.23220000
C        2.22760000      -1.19190000       2.62430000
O        1.94870000      -0.62760000       1.39620000
C        3.56500000      -1.40640000       2.98700000
C        4.70810000      -1.59790000       3.31490000
H        1.43430000       1.63670000      -0.17710000
H       -0.11020000       1.89030000      -1.00730000
H        0.00310000       2.12360000       0.74560000
H       -1.09740000      -0.08900000       0.21620000
H        0.30320000      -0.55090000      -0.75350000
H        0.84960000      -1.85430000       4.20340000
H        5.71600000      -1.76680000       3.60370000
