19
Properties=species:S:1:pos:R:3 gdb_61277=T pbc="F F F"
C       -0.01870000       1.56060000       0.03310000
C       -0.01960000       0.02710000       0.00940000
C        0.74520000      -0.55140000       1.21960000
C        0.86730000      -2.00360000       1.20710000
C        0.97210000      -3.20060000       1.18960000
N       -1.36570000      -0.52790000      -0.02940000
C       -2.06590000      -0.57910000      -1.21270000
N       -3.38540000      -1.00150000      -1.06680000
O       -1.59010000      -0.26420000      -2.28850000
H        1.00350000       1.95320000       0.01700000
H       -0.54640000       1.93910000      -0.84480000
H       -0.51560000       1.94230000       0.93290000
H        0.46600000      -0.30920000      -0.91000000
H        1.74310000      -0.09770000       1.24340000
H        0.25010000      -0.22910000       2.14740000
H        1.06960000      -4.25760000       1.17260000
H       -1.89450000      -0.51320000       0.82940000
H       -3.56940000      -1.68540000      -0.34700000
H       -3.80400000      -1.23260000      -1.95560000
