19
Properties=species:S:1:pos:R:3 gdb_113274=T pbc="F F F"
C        0.00350000       1.07670000       0.22670000
O       -0.20890000      -0.09700000      -0.54790000
C       -1.42670000      -0.71710000      -0.25210000
C       -1.54990000      -2.14930000      -0.70210000
C       -1.36310000      -1.82850000       0.77110000
O       -0.11090000      -2.07130000       1.34960000
C       -2.47920000      -2.07010000       1.76210000
C       -2.62250000      -3.54090000       2.11140000
O       -3.67150000      -4.13250000       2.12960000
H        0.97150000       1.48440000      -0.07220000
H       -0.77640000       1.82550000       0.02940000
H        0.01620000       0.85380000       1.30140000
H       -2.29640000      -0.06100000      -0.29970000
H       -2.51610000      -2.49250000      -1.05600000
H       -0.69490000      -2.56710000      -1.22320000
H        0.53840000      -1.62140000       0.79170000
H       -2.24310000      -1.52510000       2.68690000
H       -3.43860000      -1.70970000       1.38160000
H       -1.66560000      -4.05010000       2.35630000
