18
Properties=species:S:1:pos:R:3 gdb_4916=T pbc="F F F"
C        0.05190000       1.43930000      -0.02730000
N       -0.12740000       0.00130000       0.03160000
C        0.56430000      -0.68620000       1.03820000
C        1.17610000      -0.15270000       2.15370000
N        1.67070000      -1.21190000       2.89730000
C        1.39950000      -2.39980000       2.27370000
C        1.82260000      -3.71250000       2.84650000
C        0.71020000      -2.10540000       1.11730000
H        1.10830000       1.75420000      -0.08390000
H       -0.47860000       1.83650000      -0.89650000
H       -0.38300000       1.90090000       0.86690000
H       -0.00980000      -0.43710000      -0.87130000
H        1.29580000       0.86460000       2.48410000
H        2.16530000      -1.11890000       3.76630000
H        1.38180000      -3.89530000       3.83480000
H        1.50420000      -4.52520000       2.18960000
H        2.91210000      -3.78590000       2.95800000
H        0.33910000      -2.82730000       0.40450000
