19
Properties=species:S:1:pos:R:3 gdb_43675=T pbc="F F F"
O        0.18850000       0.03440000      -0.23910000
C        0.02330000       1.21640000      -0.10540000
C       -1.18960000       2.15880000       0.11930000
C       -0.13770000       3.30420000       0.18870000
C        0.02140000       4.00970000       1.52800000
N        1.26170000       4.77740000       1.53880000
C        1.16840000       6.17280000       1.11400000
C        1.37100000       5.82500000       2.54710000
N        0.88340000       2.28830000      -0.08810000
H       -1.89070000       2.20510000      -0.71530000
H       -1.73360000       1.96800000       1.04700000
H       -0.22520000       4.04350000      -0.61630000
H       -0.86780000       4.63850000       1.72000000
H        0.07800000       3.26030000       2.32690000
H        1.99360000       6.54230000       0.51260000
H        0.18910000       6.55530000       0.82950000
H        0.52700000       5.97510000       3.21860000
H        2.34700000       5.93530000       3.01060000
H        1.88990000       2.34700000      -0.04140000
