22
Properties=species:S:1:pos:R:3 gdb_61916=T pbc="F F F"
C       -0.10340000       1.60610000       0.20220000
C        0.03720000       0.07710000       0.13110000
C       -1.34920000      -0.58560000       0.11250000
C       -1.28960000      -2.11900000       0.25260000
C       -2.60570000      -2.74250000       0.19960000
C       -3.70370000      -3.23050000       0.15250000
N        0.82370000      -0.47390000      -0.98430000
C        0.93110000       0.22620000      -2.25700000
C        2.10780000       0.09600000      -1.34940000
H        0.86330000       2.11690000       0.16180000
H       -0.73180000       1.99460000      -0.60570000
H       -0.57770000       1.88520000       1.14790000
H        0.56310000      -0.25420000       1.03760000
H       -1.95910000      -0.17020000       0.92200000
H       -1.85670000      -0.32870000      -0.82520000
H       -0.64720000      -2.51850000      -0.53910000
H       -0.80080000      -2.37920000       1.20120000
H       -4.66660000      -3.67520000       0.11160000
H        0.84340000      -0.39570000      -3.14400000
H        0.49780000       1.21840000      -2.35860000
H        2.44660000       1.00230000      -0.85100000
H        2.89690000      -0.62140000      -1.56070000
