19
Properties=species:S:1:pos:R:3 gdb_67807=T pbc="F F F"
C       -0.04610000       1.48250000       0.06480000
C       -0.01980000      -0.01950000      -0.06740000
C        0.95740000      -0.71860000      -0.93750000
C        0.56710000      -1.98300000      -1.15890000
C       -0.64840000      -2.23130000      -0.31100000
O       -0.15070000      -2.22300000       1.09940000
C       -0.50680000      -0.86740000       1.18340000
C       -1.30660000      -0.83160000      -0.07170000
C       -2.68450000      -0.37810000      -0.44600000
H        0.92480000       1.86440000       0.39860000
H       -0.28660000       1.96860000      -0.88790000
H       -0.79240000       1.80820000       0.79740000
H        1.88930000      -0.26910000      -1.26190000
H        1.12220000      -2.75740000      -1.67150000
H       -1.26360000      -3.11220000      -0.49160000
H       -0.60600000      -0.42470000       2.16870000
H       -2.88240000       0.62910000      -0.06640000
H       -2.81040000      -0.35190000      -1.53470000
H       -3.45010000      -1.04470000      -0.03410000
