21
Properties=species:S:1:pos:R:3 gdb_99108=T pbc="F F F"
C       -2.95100000      -3.03850000      -0.88150000
C       -1.54730000      -2.47590000      -0.67320000
C       -0.62390000      -2.75070000      -1.84410000
O       -0.92140000      -3.35750000      -2.84090000
O        0.59820000      -2.21200000      -1.61160000
C        1.59660000      -2.37820000      -2.61960000
C        1.37980000      -1.51630000      -3.83860000
C        2.96630000      -2.58740000      -2.04630000
C        2.23020000      -3.73370000      -2.71240000
H       -3.41940000      -2.60370000      -1.76810000
H       -2.92100000      -4.12120000      -1.02740000
H       -3.58240000      -2.82260000      -0.01520000
H       -1.56720000      -1.39150000      -0.51300000
H       -1.07640000      -2.89160000       0.22580000
H        1.29660000      -0.46220000      -3.55360000
H        2.22550000      -1.61600000      -4.52490000
H        0.47070000      -1.81430000      -4.36590000
H        3.80730000      -2.13420000      -2.55930000
H        3.04900000      -2.60790000      -0.96580000
H        1.83590000      -4.51500000      -2.07390000
H        2.55850000      -4.07360000      -3.68830000
