14
Properties=species:S:1:pos:R:3 gdb_29473=T pbc="F F F"
O        0.09570000       1.37300000      -0.11290000
C        0.06150000       0.01160000      -0.01040000
C        0.01620000      -0.83490000      -1.09400000
N       -0.01090000      -2.16520000      -0.63500000
C        0.01980000      -2.09980000       0.71380000
C        0.06440000      -0.80020000       1.17100000
C        0.09050000      -0.93740000       2.60690000
C        0.06030000      -2.27310000       2.85870000
O        0.01520000      -3.02520000       1.68760000
H        0.12540000       1.74300000       0.77310000
H        0.00030000      -0.61240000      -2.14660000
H       -0.04390000      -2.98620000      -1.21040000
H        0.12690000      -0.16800000       3.36280000
H        0.06380000      -2.85500000       3.76420000
