16
Properties=species:S:1:pos:R:3 gdb_17066=T pbc="F F F"
C       -0.20960000       1.31820000       0.03440000
O        0.37310000       0.04440000      -0.14270000
C        0.84640000      -0.51010000       1.03640000
C       -0.11190000      -1.37740000       1.92310000
O       -0.12780000      -2.40200000       0.85740000
C        1.28630000      -1.98430000       0.94540000
C        1.12430000      -2.10010000       2.49890000
O        1.93460000      -1.38800000       3.38980000
H        0.49640000       2.02710000       0.49430000
H       -0.48750000       1.68590000      -0.95570000
H       -1.11180000       1.27300000       0.66190000
H        1.51190000       0.16880000       1.58350000
H       -1.05750000      -1.13200000       2.40580000
H        1.99610000      -2.45550000       0.26520000
H        0.90330000      -3.12430000       2.81410000
H        2.69920000      -1.93050000       3.60640000
