21
Properties=species:S:1:pos:R:3 gdb_111630=T pbc="F F F"
C        0.21570000       1.44710000      -0.10590000
C        0.08860000      -0.05260000       0.03160000
C       -1.17490000      -0.72040000      -0.40720000
C       -1.52890000      -1.72470000       0.39780000
C       -0.55830000      -1.89380000       1.54840000
C        0.51810000      -0.84220000       1.26750000
C        1.33930000      -0.92240000      -0.00020000
C        1.49770000      -2.16310000      -0.83450000
O        1.86870000      -1.75480000      -2.14870000
H        1.15160000       1.80500000       0.33460000
H        0.21330000       1.74750000      -1.16020000
H       -0.61100000       1.96630000       0.39240000
H       -1.71180000      -0.40810000      -1.29660000
H       -2.38490000      -2.37510000       0.25450000
H       -1.04540000      -1.71090000       2.51570000
H       -0.15620000      -2.91460000       1.60230000
H        0.96840000      -0.33520000       2.11400000
H        2.25960000      -0.34280000       0.03990000
H        2.27810000      -2.80080000      -0.38690000
H        0.56610000      -2.74400000      -0.85210000
H        1.99910000      -2.54730000      -2.67800000
