18
Properties=species:S:1:pos:R:3 gdb_57982=T pbc="F F F"
C        0.14100000       1.60300000       0.02030000
C       -0.02840000       0.07570000       0.06270000
N        0.30180000      -0.50420000      -1.23170000
C        0.81520000      -0.49410000       1.20820000
O        1.85320000      -1.09360000       1.07390000
O        0.25950000      -0.22340000       2.40820000
C        1.01580000      -0.68820000       3.54730000
C        0.31180000      -0.31440000       4.76100000
C       -0.24520000      -0.01930000       5.78270000
H        1.18360000       1.86730000      -0.18900000
H       -0.48070000       2.01210000      -0.77890000
H       -0.14530000       2.05640000       0.97200000
H       -1.07690000      -0.14790000       0.28910000
H        1.30820000      -0.43590000      -1.36780000
H        0.10840000      -1.50210000      -1.21630000
H        1.14010000      -1.77410000       3.47660000
H        2.01870000      -0.24910000       3.51690000
H       -0.73970000       0.24270000       6.68550000
