13
Properties=species:S:1:pos:R:3 gdb_27593=T pbc="F F F"
N       -0.02280000       1.33530000       0.08920000
C        0.00120000      -0.01780000       0.03210000
N       -1.18700000      -0.64560000       0.02610000
C       -1.13430000      -1.97800000       0.00430000
C        0.05850000      -2.69900000      -0.01390000
C        1.22060000      -1.93010000      -0.01550000
N        1.21640000      -0.60390000       0.00550000
C       -2.39640000      -2.67750000      -0.00350000
N       -3.38980000      -3.26880000      -0.01080000
H        0.83710000       1.83450000      -0.05440000
H       -0.90150000       1.80600000      -0.03740000
H        0.07480000      -3.77950000      -0.03230000
H        2.19770000      -2.40760000      -0.03690000
