22
Properties=species:S:1:pos:R:3 gdb_77249=T pbc="F F F"
C       -0.21270000       1.67400000       0.16870000
C       -0.11880000       0.16430000       0.09500000
C        1.11060000      -0.54400000      -0.43940000
N        2.24770000       0.23420000      -0.83540000
C        3.52610000      -0.22260000      -0.71540000
O        3.85090000      -1.25160000      -0.16460000
C        0.73640000      -0.67660000       1.02620000
C        1.60300000      -0.02060000       2.08300000
C        0.18280000      -2.02500000       1.44830000
H        0.74090000       2.14210000       0.42270000
H       -0.54540000       2.09250000      -0.78880000
H       -0.94070000       1.98030000       0.92740000
H       -1.05430000      -0.30360000      -0.20360000
H        0.94950000      -1.42830000      -1.05310000
H        2.09940000       1.04880000      -1.41190000
H        4.25430000       0.47420000      -1.17910000
H        2.03860000       0.92160000       1.74640000
H        1.01970000       0.18150000       2.98870000
H        2.43030000      -0.68480000       2.35060000
H        0.99660000      -2.71950000       1.68440000
H       -0.44910000      -1.92930000       2.33910000
H       -0.42450000      -2.47720000       0.65760000
