20
Properties=species:S:1:pos:R:3 gdb_70303=T pbc="F F F"
O        0.00460000       1.30730000      -0.62500000
C       -0.01120000       0.05020000      -0.01810000
C       -0.06180000      -1.19100000      -0.87290000
C       -1.27650000      -0.76820000      -0.06020000
C       -1.47460000      -1.41520000       1.30120000
C       -0.09530000      -1.31460000       1.96110000
C        0.18180000      -1.84540000       3.31230000
N        0.74250000      -2.52050000       2.12380000
C        0.59590000      -0.08680000       1.37310000
H        0.88390000       1.44740000      -0.99280000
H       -0.13290000      -1.02450000      -1.94220000
H        0.50760000      -2.06710000      -0.57920000
H       -2.13690000      -0.39680000      -0.60420000
H       -2.21730000      -0.84580000       1.87450000
H       -1.82740000      -2.45290000       1.25370000
H        0.91560000      -1.36010000       3.95080000
H       -0.63160000      -2.32720000       3.85020000
H        0.19160000      -3.35190000       1.91990000
H        1.68340000      -0.20950000       1.37880000
H        0.34520000       0.81560000       1.94440000
