11
Properties=species:S:1:pos:R:3 gdb_131281=T pbc="F F F"
O        0.07120000       1.29460000       0.10870000
C        0.06210000      -0.03030000       0.04270000
N        0.09470000      -0.60020000      -1.16720000
C        0.08310000      -1.92120000      -1.15900000
C        0.03970000      -2.62210000       0.05310000
N        0.00890000      -1.96950000       1.22760000
N        0.02000000      -0.65660000       1.23120000
C        0.02660000      -4.05220000       0.08340000
N        0.01760000      -5.20850000       0.05780000
H        0.10200000       1.62920000      -0.79920000
H        0.10830000      -2.43920000      -2.11370000
