16
Properties=species:S:1:pos:R:3 gdb_44787=T pbc="F F F"
O        0.11800000       0.08770000       0.04760000
C        0.06440000       1.28860000       0.06270000
N       -1.06050000       2.10730000       0.16870000
C       -0.49680000       3.43180000      -0.06830000
C        0.70980000       3.40720000       0.99490000
C        1.22620000       2.31880000      -0.03720000
C        2.16380000       1.82270000      -1.16600000
O        1.14510000       2.30940000      -2.13950000
C        0.70060000       3.23290000      -1.09530000
H       -1.91340000       1.81290000      -0.28550000
H       -1.22740000       4.23830000      -0.10800000
H        1.30500000       4.31940000       1.01910000
H        0.43090000       3.08260000       1.99840000
H        3.10320000       2.36840000      -1.29310000
H        2.29820000       0.74220000      -1.23540000
H        1.24240000       4.17850000      -1.21440000
