16
Properties=species:S:1:pos:R:3 gdb_45613=T pbc="F F F"
N        0.05850000       0.97920000      -0.79840000
C       -0.01770000      -0.18140000      -0.29300000
C       -1.07150000      -0.67220000       0.69960000
N       -0.68420000      -2.03680000       1.08200000
C        0.35530000      -2.30820000       0.38960000
N        0.79000000      -1.30930000      -0.47710000
C        1.08770000      -3.59370000       0.43330000
C        1.44380000      -4.30760000      -0.80660000
O        2.42260000      -3.55820000      -0.08850000
H        0.84740000       1.06560000      -1.44110000
H       -1.12470000      -0.02080000       1.57770000
H       -2.06750000      -0.67040000       0.24230000
H        1.71200000      -1.30870000      -0.88420000
H        0.94650000      -4.16310000       1.34810000
H        1.56420000      -5.38860000      -0.77420000
H        1.14620000      -3.89250000      -1.76740000
