16
Properties=species:S:1:pos:R:3 gdb_20012=T pbc="F F F"
O        0.15780000       0.24800000      -0.54200000
C        0.14410000       1.37780000      -0.11930000
N        1.19600000       1.98630000       0.54470000
C        2.58550000       1.85100000       0.18120000
C        1.89990000       3.19260000       0.14090000
C        1.59670000       3.84580000      -1.16900000
C        0.93930000       5.17810000      -1.19640000
N        2.35370000       5.03760000      -1.57740000
H       -0.74890000       2.03040000      -0.15270000
H        3.27220000       1.61820000       0.99020000
H        2.79980000       1.36440000      -0.76720000
H        2.09690000       3.89040000       0.95620000
H        1.40140000       3.14970000      -1.98350000
H        0.26880000       5.43720000      -2.01040000
H        0.69660000       5.64110000      -0.24280000
H        2.95640000       5.34890000      -0.81830000
