21
Properties=species:S:1:pos:R:3 gdb_118990=T pbc="F F F"
O        0.01580000       1.55940000       0.00410000
C        0.07860000       0.13900000       0.02800000
C       -1.30990000      -0.49850000      -0.07530000
C       -1.31830000      -2.03200000      -0.05120000
O       -0.67170000      -2.39210000       1.18450000
C       -2.76120000      -2.61790000      -0.14350000
C       -2.69020000      -3.83710000      -1.09680000
C       -1.33780000      -3.68730000      -1.74910000
C       -0.61580000      -2.70270000      -1.21630000
H       -0.44160000       1.84250000       0.80220000
H        0.69150000      -0.13580000      -0.83690000
H        0.59110000      -0.23070000       0.92490000
H       -1.92100000      -0.14830000       0.76860000
H       -1.79660000      -0.14910000      -0.99180000
H       -0.49300000      -3.33780000       1.14950000
H       -3.12010000      -2.86900000       0.85730000
H       -3.43940000      -1.86440000      -0.55410000
H       -2.76730000      -4.79700000      -0.56860000
H       -3.50390000      -3.83520000      -1.83110000
H       -1.00700000      -4.33540000      -2.55430000
H        0.39260000      -2.43380000      -1.50960000
