16
Properties=species:S:1:pos:R:3 gdb_31883=T pbc="F F F"
C       -0.27620000       1.53250000       0.17850000
C        0.12050000       0.05830000      -0.02020000
C        0.86240000      -0.52780000       1.13690000
C        2.16760000      -0.95420000       1.28220000
N        2.40800000      -1.40940000       2.54640000
C        1.26190000      -1.26820000       3.18610000
N        0.29580000      -0.73570000       2.36910000
C        0.99540000      -1.60380000       4.53770000
N        0.73280000      -1.86290000       5.63550000
H        0.60750000       2.15510000       0.34380000
H       -0.80340000       1.90950000      -0.70240000
H       -0.93830000       1.65840000       1.04140000
H       -0.77810000      -0.53770000      -0.22720000
H        0.75820000      -0.03500000      -0.90440000
H        2.94170000      -0.95420000       0.52940000
H       -0.65760000      -0.54410000       2.63280000
