20
Properties=species:S:1:pos:R:3 gdb_85934=T pbc="F F F"
C       -0.11440000       1.30100000       0.35760000
N       -0.04330000      -0.09670000       0.00330000
C       -1.13800000      -0.79670000      -0.63890000
C       -0.71220000      -2.28470000      -0.59880000
C       -1.29250000      -2.99510000       0.62690000
O       -1.19290000      -2.87810000      -1.79900000
C        0.82740000      -2.19530000      -0.52570000
C        1.12090000      -0.81940000       0.07120000
O        2.17810000      -0.41880000       0.51210000
H        0.84110000       1.57630000       0.80700000
H       -0.29150000       1.93040000      -0.52450000
H       -0.92220000       1.48310000       1.07640000
H       -2.08170000      -0.62170000      -0.10900000
H       -1.27330000      -0.48240000      -1.68330000
H       -2.38470000      -3.01530000       0.57230000
H       -0.92780000      -4.02750000       0.68500000
H       -0.99610000      -2.48860000       1.55100000
H       -1.03290000      -3.82630000      -1.74750000
H        1.30030000      -2.98210000       0.06650000
H        1.24690000      -2.22960000      -1.53690000
