15
Properties=species:S:1:pos:R:3 gdb_83109=T pbc="F F F"
O        0.44840000       1.03250000       0.73110000
C        0.06790000      -0.19390000       0.16530000
C       -1.46020000      -0.50450000       0.06050000
N       -2.35860000       0.63950000       0.04190000
C       -2.57010000       0.98130000      -1.28260000
N       -2.11630000       0.20120000      -2.19160000
C       -1.31420000      -0.80840000      -1.48260000
C        0.15910000      -0.32650000      -1.37100000
O        1.00000000       0.02590000      -2.14400000
H        1.06940000       1.44920000       0.12130000
H        0.58440000      -1.03860000       0.65040000
H       -1.81190000      -1.28880000       0.73210000
H       -2.22290000       1.36970000       0.72630000
H       -3.16290000       1.86370000      -1.50660000
H       -1.48930000      -1.81980000      -1.85260000
