15
Properties=species:S:1:pos:R:3 gdb_5083=T pbc="F F F"
C       -0.06820000       1.52730000       0.02140000
C       -0.01750000       0.03160000      -0.00620000
C       -0.04260000      -0.78800000      -1.10930000
N        0.01670000      -2.10460000      -0.67960000
C        0.08660000      -2.12630000       0.68180000
O        0.13790000      -3.30670000       1.34680000
C        0.07030000      -0.83060000       1.13380000
O        0.05260000      -0.50210000       2.47750000
H        0.85670000       1.96780000       0.41660000
H       -0.21680000       1.93320000      -0.98320000
H       -0.88650000       1.89000000       0.65440000
H       -0.09510000      -0.55130000      -2.15900000
H       -0.00980000      -2.92400000      -1.25930000
H        0.13020000      -3.08620000       2.28620000
H        0.84130000       0.01150000       2.68190000
