17
Properties=species:S:1:pos:R:3 gdb_20093=T pbc="F F F"
O        0.12880000       1.39630000       1.10610000
C        0.31710000       0.17990000       0.44320000
C       -0.50890000      -0.95800000       0.99360000
O       -1.27090000      -0.70350000       2.12520000
C       -0.88420000      -0.32330000      -0.34300000
N       -1.97860000       0.61040000      -0.36240000
C       -2.74040000       0.75610000      -1.59980000
C       -3.33850000       0.07670000      -0.41810000
H       -0.69400000       1.75820000       0.72780000
H        1.32950000       0.03060000       0.08070000
H       -0.11140000      -1.96890000       0.96140000
H       -1.00610000       0.18330000       2.41580000
H       -0.71280000      -0.91270000      -1.24330000
H       -3.03030000       1.77030000      -1.85890000
H       -2.44960000       0.13590000      -2.44510000
H       -3.44730000      -1.00360000      -0.45900000
H       -4.06850000       0.58860000       0.20130000
