17
Properties=species:S:1:pos:R:3 gdb_114650=T pbc="F F F"
C        0.13170000       1.28310000       0.08710000
O       -0.02180000      -0.12040000      -0.05830000
C        0.60680000      -0.64320000      -1.17750000
O        2.05560000      -0.57570000      -1.07650000
C        2.43250000      -1.95740000      -0.97580000
C        1.59540000      -2.60570000      -2.11590000
C        0.38570000      -2.15850000      -1.22460000
C        1.33460000      -2.55110000      -0.05590000
O        1.26760000      -3.19950000       0.93930000
H        1.18290000       1.55380000       0.23520000
H       -0.25470000       1.81760000      -0.79330000
H       -0.44770000       1.57520000       0.96460000
H        0.31090000      -0.09280000      -2.08280000
H        3.50480000      -2.06550000      -0.83890000
H        1.69370000      -2.11970000      -3.08820000
H        1.69520000      -3.68970000      -2.19380000
H       -0.63090000      -2.52440000      -1.33320000
