16
Properties=species:S:1:pos:R:3 gdb_45219=T pbc="F F F"
O        0.09060000       0.14950000      -0.85090000
C        0.04320000       1.19570000      -0.26390000
C       -1.22090000       1.90770000       0.26280000
N       -0.79210000       3.12400000       0.95190000
C       -0.32330000       2.93580000       2.36770000
C        1.13480000       3.10460000       1.92600000
O        1.68490000       1.85200000       1.44670000
C        1.23370000       2.10870000       0.08380000
C        0.61450000       3.44280000       0.51360000
H       -1.85420000       2.14930000      -0.60190000
H       -1.80600000       1.25250000       0.91400000
H       -0.70330000       3.73420000       3.01380000
H       -0.55080000       1.96270000       2.81590000
H        1.84950000       3.66830000       2.52690000
H        2.05190000       2.05740000      -0.63800000
H        0.75200000       4.36050000      -0.05640000
