19
Properties=species:S:1:pos:R:3 gdb_88539=T pbc="F F F"
O        0.00080000       1.46860000       0.24540000
C       -0.03420000       0.08290000       0.12280000
C       -0.57240000      -0.81650000       1.20300000
C       -1.32910000      -0.66760000      -0.11170000
C       -2.59450000       0.10730000      -0.12140000
C       -3.14140000       1.08900000      -1.20030000
C       -3.96890000       1.25560000       0.08910000
C       -4.05610000      -0.28090000       0.23600000
O       -2.71110000       1.22630000       0.88070000
H       -0.85620000       1.76090000       0.59360000
H        0.83830000      -0.26330000      -0.42230000
H       -0.07420000      -1.75700000       1.41190000
H       -1.01920000      -0.33250000       2.06520000
H       -1.31830000      -1.49930000      -0.81060000
H       -2.47630000       1.91620000      -1.44910000
H       -3.63590000       0.65870000      -2.07410000
H       -4.69870000       2.01900000       0.35500000
H       -4.63210000      -0.83340000      -0.51010000
H       -4.20610000      -0.64660000       1.25220000
