10
Properties=species:S:1:pos:R:3 gdb_1013=T pbc="F F F"
N        0.10690000      -1.15250000      -0.00510000
C        0.02510000       0.00360000       0.00250000
C       -0.06440000       1.41020000       0.01160000
C       -1.14420000       2.27130000       0.03070000
N       -0.72290000       3.56860000       0.03240000
C        0.59380000       3.51260000       0.01480000
N        1.04810000       2.23530000       0.00170000
H       -2.18990000       2.00600000       0.04290000
H        1.26220000       4.36060000       0.01080000
H        2.00720000       1.92770000      -0.01270000
