18
Properties=species:S:1:pos:R:3 gdb_88717=T pbc="F F F"
C       -0.79050000       0.90080000       0.24080000
N        0.12420000      -0.23110000       0.12510000
C        1.51200000       0.01040000      -0.21570000
C        1.13860000      -0.58110000       1.10790000
C        1.51480000       0.12380000       2.38030000
N        1.06520000       1.47890000       2.67410000
C        0.60540000       0.38150000       3.54950000
C       -0.80160000       0.06550000       3.53830000
N       -1.92280000      -0.21520000       3.56470000
H       -0.33350000       1.81310000       0.63980000
H       -1.18320000       1.10450000      -0.76070000
H       -1.62830000       0.62010000       0.88340000
H        1.94310000      -0.60570000      -1.00170000
H        1.86470000       1.04250000      -0.19510000
H        1.24790000      -1.66010000       1.22680000
H        2.52810000      -0.13870000       2.69000000
H        1.78460000       2.01850000       3.14740000
H        1.05230000       0.29440000       4.53660000
