23
Properties=species:S:1:pos:R:3 gdb_39634=T pbc="F F F"
C       -0.06600000       1.59900000      -0.00210000
C        1.47070000       1.52100000      -0.19580000
C        1.45580000       0.13450000       0.52830000
C       -0.07370000       0.06290000       0.21060000
C        2.36710000      -0.95820000       0.08260000
C        3.24020000      -1.62010000       0.84840000
C        3.97980000      -2.70290000       0.10280000
C        3.65590000      -2.38040000      -1.37810000
C        2.37590000      -1.50920000      -1.33440000
H       -0.33170000       2.13500000       0.91390000
H       -0.66290000       2.00190000      -0.82350000
H        1.73600000       1.41720000      -1.25200000
H        2.09140000       2.30650000       0.24240000
H        1.58950000       0.29690000       1.60330000
H       -0.72720000      -0.35340000       0.98130000
H       -0.26020000      -0.46840000      -0.72750000
H        3.38400000      -1.43780000       1.90900000
H        5.05730000      -2.70770000       0.30480000
H        3.61140000      -3.69760000       0.39460000
H        4.47580000      -1.79600000      -1.80800000
H        3.54000000      -3.27520000      -1.99520000
H        1.47210000      -2.10910000      -1.51430000
H        2.37830000      -0.72810000      -2.10320000
