14
Properties=species:S:1:pos:R:3 gdb_128037=T pbc="F F F"
C        0.39780000       1.29120000      -0.75240000
N        0.60490000      -0.08830000      -1.14770000
C       -0.07820000      -0.97510000      -0.59570000
O        0.03360000      -2.31440000      -0.90750000
C        1.01870000      -2.70840000      -1.73330000
C        0.95680000      -3.36000000      -2.92570000
N        2.25300000      -3.63600000      -3.27280000
N        3.05930000      -3.21370000      -2.40770000
O        2.27950000      -2.58880000      -1.35250000
H        0.12410000       1.87910000      -1.63430000
H       -0.37930000       1.42280000       0.01510000
H        1.33950000       1.69960000      -0.37210000
H       -0.85080000      -0.86270000       0.16850000
H        0.11170000      -3.63590000      -3.53010000
