19
Properties=species:S:1:pos:R:3 gdb_88571=T pbc="F F F"
C        0.09120000       1.35300000       0.65660000
C        0.12620000      -0.02050000       0.03170000
C        1.40150000      -0.80360000      -0.03690000
N        0.31510000      -1.22180000       0.83760000
C        0.41690000      -1.20720000       2.20960000
N       -0.41100000      -0.69150000       3.03020000
C        0.06620000      -1.04780000       4.36920000
C        1.35810000      -1.87710000       4.12530000
O        1.48710000      -1.90560000       2.68910000
H        0.89900000       1.48480000       1.38090000
H        0.19880000       2.11360000      -0.12360000
H       -0.85320000       1.51740000       1.18130000
H       -0.59300000      -0.17330000      -0.77090000
H        1.60720000      -1.46610000      -0.87290000
H        2.28040000      -0.36440000       0.42840000
H        0.26020000      -0.14480000       4.95980000
H       -0.69620000      -1.62370000       4.90650000
H        2.25930000      -1.41790000       4.54230000
H        1.28960000      -2.90790000       4.48460000
