19
Properties=species:S:1:pos:R:3 gdb_100373=T pbc="F F F"
C       -0.12270000       1.52800000       0.12980000
C        0.04200000       0.01580000      -0.02550000
C        0.78910000      -0.44510000      -1.30620000
C        2.23250000       0.09400000      -1.35460000
N        0.78430000      -1.91400000      -1.28820000
C        1.30310000      -2.70540000      -2.27300000
O        1.91990000      -2.31330000      -3.23720000
C        0.03830000       0.04060000      -2.48900000
N       -0.57700000       0.45460000      -3.37500000
H        0.83930000       2.03450000       0.24320000
H       -0.63900000       1.96090000      -0.73170000
H       -0.71650000       1.74520000       1.02180000
H        0.59650000      -0.39540000       0.82650000
H       -0.94810000      -0.45680000      -0.02690000
H        2.75980000      -0.21900000      -0.44880000
H        2.74820000      -0.30400000      -2.22720000
H        2.23210000       1.18440000      -1.40870000
H        0.17660000      -2.35610000      -0.61550000
H        1.10220000      -3.77710000      -2.07520000
