17
Properties=species:S:1:pos:R:3 gdb_69291=T pbc="F F F"
O       -0.18300000       1.38680000       0.03660000
C       -0.08410000      -0.00440000       0.04510000
C       -0.47520000      -0.78000000      -1.18450000
C       -1.34470000      -0.83560000       0.06680000
C       -1.05920000      -1.97860000       0.99670000
C        0.18960000      -1.89060000       1.49240000
C        0.90720000      -0.65130000       1.01800000
C       -2.00600000      -2.99590000       1.26690000
C       -2.84410000      -3.83640000       1.47610000
H        0.50370000       1.73180000      -0.54440000
H       -0.86520000      -0.19000000      -2.00740000
H        0.08210000      -1.66770000      -1.46730000
H       -2.32930000      -0.38550000       0.03590000
H        0.64020000      -2.61880000       2.15550000
H        1.87450000      -0.88060000       0.55220000
H        1.11160000       0.03840000       1.84850000
H       -3.57200000      -4.58480000       1.66840000
