12
Properties=species:S:1:pos:R:3 gdb_53771=T pbc="F F F"
C        0.43130000       1.36960000       0.09260000
C        0.25040000      -0.12330000       0.09900000
O        0.05700000      -0.80270000       1.07640000
C        0.32500000      -0.81170000      -1.28350000
O        0.51560000      -0.19110000      -2.30390000
C        0.15020000      -2.25290000      -1.26930000
C        0.01170000      -3.45350000      -1.32220000
C       -0.14770000      -4.80760000      -1.36900000
N       -0.28320000      -5.96040000      -1.41030000
H        1.40280000       1.62720000      -0.34180000
H       -0.32340000       1.83620000      -0.54870000
H        0.35610000       1.75150000       1.11060000
