19
Properties=species:S:1:pos:R:3 gdb_89674=T pbc="F F F"
C       -0.21900000       1.45090000       0.04020000
N        0.11990000       0.03950000       0.01180000
C        1.20200000      -0.42730000      -0.89240000
C        1.88060000      -1.13470000       0.28800000
C        2.18000000      -0.10470000       1.36660000
C        0.76060000      -0.56130000       1.18320000
C       -0.06340000      -1.20470000       2.25640000
C        2.44510000      -2.43980000       0.27260000
N        2.90210000      -3.50390000       0.25480000
H        0.63590000       2.11900000       0.24450000
H       -0.65010000       1.73820000      -0.92390000
H       -0.97850000       1.62570000       0.80870000
H        0.83040000      -1.10200000      -1.66850000
H        1.80390000       0.36570000      -1.35590000
H        2.68840000      -0.49740000       2.24070000
H        2.50610000       0.88540000       1.05920000
H       -0.55260000      -0.44370000       2.87560000
H       -0.83930000      -1.83740000       1.81710000
H        0.56160000      -1.81610000       2.91340000
