14
Properties=species:S:1:pos:R:3 gdb_27849=T pbc="F F F"
N        0.02080000       1.37950000       0.15660000
C       -0.05390000       0.01420000       0.05340000
C       -1.23050000      -0.69690000       0.03690000
C       -1.09710000      -2.10220000      -0.00680000
O       -2.23820000      -2.80890000      -0.02270000
N        0.02520000      -2.78010000      -0.04020000
C        1.21350000      -2.10340000      -0.02480000
O        2.32200000      -2.59280000      -0.04160000
N        1.11340000      -0.67520000       0.01610000
H        0.84110000       1.82980000      -0.22000000
H       -0.83440000       1.88040000      -0.02720000
H       -2.19810000      -0.21870000       0.05340000
H       -1.96580000      -3.73850000      -0.05740000
H        2.00340000      -0.20170000       0.07490000
