17
Properties=species:S:1:pos:R:3 gdb_30293=T pbc="F F F"
O       -0.21530000       1.51220000      -0.15410000
C        0.07520000       0.12590000       0.01960000
C       -1.20970000      -0.77560000       0.14770000
C       -1.37810000      -1.60450000      -1.17140000
C       -0.03810000      -1.38190000      -1.78010000
C        0.76950000      -0.49010000      -1.15870000
C        1.97160000      -0.42930000      -1.94020000
C        1.77520000      -1.30460000      -2.96460000
O        0.53900000      -1.90120000      -2.88490000
H       -0.53110000       1.62660000      -1.05730000
H        0.65660000       0.09270000       0.94610000
H       -1.08740000      -1.46110000       0.99090000
H       -2.07500000      -0.14480000       0.36300000
H       -1.59590000      -2.65760000      -0.96490000
H       -2.19320000      -1.23350000      -1.80550000
H        2.85670000       0.16510000      -1.77560000
H        2.38180000      -1.61600000      -3.79910000
