17
Properties=species:S:1:pos:R:3 gdb_65300=T pbc="F F F"
O       -0.20550000       1.35310000      -0.24950000
C       -0.07710000      -0.02070000      -0.04820000
C       -0.32460000      -0.59820000       1.34980000
C       -1.35820000      -0.77590000       0.29210000
C       -2.75040000      -0.16980000       0.12140000
C       -3.01900000      -1.37480000      -0.82180000
N       -1.78680000      -2.02990000      -0.30020000
C        0.87310000      -0.69320000      -0.90250000
N        1.60820000      -1.25480000      -1.59880000
H        0.57000000       1.79180000       0.12040000
H        0.25880000      -1.46240000       1.65080000
H       -0.50770000       0.13950000       2.12470000
H       -3.34250000      -0.19090000       1.03860000
H       -2.78390000       0.82640000      -0.31780000
H       -3.92970000      -1.95300000      -0.64390000
H       -2.96960000      -1.09930000      -1.88180000
H       -1.16050000      -2.43160000      -0.99220000
