18
Properties=species:S:1:pos:R:3 gdb_37898=T pbc="F F F"
C       -0.07460000       1.49690000       0.01590000
N        1.46530000       1.29370000       0.03410000
C        1.21510000       0.08560000       0.95500000
C        2.23090000      -1.00330000       0.62420000
C        1.84180000      -1.16570000      -0.86300000
C        0.52610000      -2.02470000      -0.96440000
O       -0.55990000      -1.23640000      -0.37490000
C        0.09030000      -0.02630000      -0.10710000
C        1.22520000       0.22170000      -1.07560000
H       -0.46060000       1.91180000       0.95020000
H       -0.42950000       2.05460000      -0.85380000
H        1.00300000       0.34230000       1.99330000
H        3.26240000      -0.66210000       0.75600000
H        2.08310000      -1.91150000       1.21590000
H        2.62500000      -1.51810000      -1.53490000
H        0.26720000      -2.24250000      -2.00790000
H        0.61060000      -2.96870000      -0.41700000
H        1.04660000       0.61350000      -2.07590000
