18
Properties=species:S:1:pos:R:3 gdb_77101=T pbc="F F F"
N        0.48580000       0.92980000      -0.49910000
C       -0.05110000      -0.34630000      -0.10850000
C       -0.05810000      -0.67310000       1.42830000
C       -1.42540000      -1.40980000       1.23950000
C       -1.56170000      -0.68160000      -0.09820000
C       -2.64330000       0.22420000      -0.54170000
N       -2.41840000      -1.08130000      -1.19930000
C        1.06240000      -1.41810000       1.96980000
N        1.95250000      -2.03200000       2.38020000
H        0.63030000       0.99410000      -1.49990000
H       -0.12000000       1.69390000      -0.21850000
H        0.50020000      -1.13130000      -0.63740000
H       -0.18900000       0.25290000       1.99540000
H       -1.29470000      -2.48660000       1.11020000
H       -2.18270000      -1.22580000       2.00230000
H       -3.56650000       0.29650000       0.02730000
H       -2.36570000       1.13030000      -1.07660000
H       -1.94150000      -0.94950000      -2.08930000
