23
Properties=species:S:1:pos:R:3 gdb_102291=T pbc="F F F"
C       -0.03430000       1.55500000      -0.13470000
C        0.04670000       0.02280000      -0.08270000
C        0.85010000      -0.51560000      -1.27530000
C        0.66580000      -0.49150000       1.23180000
C       -0.09290000      -0.12890000       2.53140000
C       -1.51130000      -0.74570000       2.59230000
O       -2.18920000      -0.42960000       3.78780000
C        0.66130000      -0.56420000       3.70690000
C        1.24300000      -0.96070000       4.68320000
H        0.96080000       2.00180000      -0.01960000
H       -0.43830000       1.88970000      -1.09560000
H       -0.67690000       1.96610000       0.64970000
H       -0.97330000      -0.37480000      -0.16900000
H        1.88380000      -0.15040000      -1.24850000
H        0.88420000      -1.61010000      -1.27360000
H        0.40940000      -0.19430000      -2.22460000
H        0.75820000      -1.58380000       1.18450000
H        1.68900000      -0.10450000       1.31410000
H       -0.21090000       0.96010000       2.59500000
H       -2.12260000      -0.34120000       1.78110000
H       -1.42960000      -1.83460000       2.44220000
H       -1.62140000      -0.71100000       4.51580000
H        1.78000000      -1.29060000       5.53810000
