22
Properties=species:S:1:pos:R:3 gdb_120267=T pbc="F F F"
C       -0.11040000       1.51840000      -0.05710000
C        0.13530000       0.02120000       0.01940000
O        0.47940000      -0.44090000      -1.27500000
C        0.70820000      -1.81770000      -1.35250000
C        0.76210000      -2.39220000      -2.76090000
N        1.97040000      -1.84740000      -3.42740000
C        2.10140000      -2.99510000      -2.50260000
C        2.16930000      -2.39870000      -1.08770000
C        3.29660000      -1.41840000      -0.79690000
H        0.79060000       2.03660000      -0.39690000
H       -0.91690000       1.73780000      -0.76250000
H       -0.38920000       1.91100000       0.92550000
H        0.93970000      -0.19910000       0.73840000
H       -0.76800000      -0.50240000       0.37670000
H       -0.02650000      -2.36610000      -0.74390000
H       -0.07090000      -2.76100000      -3.34700000
H        1.96930000      -2.22260000      -4.37550000
H        2.49860000      -3.94430000      -2.84080000
H        2.12430000      -3.18390000      -0.32670000
H        3.31070000      -0.62400000      -1.54480000
H        3.18260000      -0.96320000       0.19230000
H        4.26590000      -1.92940000      -0.81520000
