17
Properties=species:S:1:pos:R:3 gdb_26480=T pbc="F F F"
C       -0.30200000       1.36790000      -0.58400000
C       -0.02670000      -0.02860000      -0.05890000
C        0.98950000      -0.87450000      -0.76060000
N        1.26740000      -0.32760000       0.57590000
C       -1.15640000      -0.68960000       0.62660000
C       -1.29040000      -1.41350000       1.76520000
N       -2.61710000      -1.80830000       1.90990000
C       -3.20690000      -1.31180000       0.87480000
O       -2.39680000      -0.61700000       0.03980000
H        0.57180000       1.75860000      -1.11460000
H       -1.14890000       1.36460000      -1.27610000
H       -0.54380000       2.05140000       0.23690000
H        0.86330000      -1.95230000      -0.79380000
H        1.49370000      -0.44190000      -1.62130000
H        1.87620000       0.48400000       0.50600000
H       -0.52930000      -1.67240000       2.48170000
H       -4.24700000      -1.37590000       0.59620000
