15
Properties=species:S:1:pos:R:3 gdb_125784=T pbc="F F F"
C       -0.01680000       1.49890000      -0.01110000
C       -0.00800000       0.00630000       0.06370000
N       -0.04020000      -0.68620000      -1.05760000
O       -0.02280000      -2.07840000      -0.69840000
C        0.01900000      -2.09470000       0.62910000
C        0.03170000      -0.84760000       1.20730000
C        0.07700000      -1.06130000       2.62520000
C        0.08880000      -2.42060000       2.80970000
N        0.05250000      -3.07050000       1.56720000
H        0.87980000       1.91550000       0.45980000
H       -0.05210000       1.82460000      -1.05210000
H       -0.88440000       1.90790000       0.51720000
H        0.09840000      -0.32540000       3.41330000
H        0.11990000      -3.00350000       3.71600000
H        0.05240000      -4.06360000       1.41650000
