19
Properties=species:S:1:pos:R:3 gdb_37590=T pbc="F F F"
C       -0.01250000       1.58800000      -0.02770000
C        1.46720000       1.91990000       0.08190000
C        2.49620000       0.94160000      -0.49340000
C        2.10490000       0.88990000       0.96600000
C        1.21740000      -0.36830000       0.91610000
O        1.99390000      -1.27530000       0.12440000
C        2.05000000      -0.44050000      -1.04940000
C        0.56310000      -0.40310000      -1.41450000
C        0.01180000       0.05390000      -0.03670000
H       -0.53610000       1.99020000       0.84860000
H       -0.50160000       1.99640000      -0.91830000
H        1.77190000       2.95990000       0.14620000
H        3.45350000       1.34520000      -0.79950000
H        2.77720000       1.09200000       1.78970000
H        0.95200000      -0.83080000       1.86510000
H        2.73160000      -0.87540000      -1.78020000
H        0.31340000       0.29540000      -2.21720000
H        0.22710000      -1.40460000      -1.69250000
H       -0.93670000      -0.40970000       0.23390000
