20
Properties=species:S:1:pos:R:3 gdb_6471=T pbc="F F F"
C        0.62950000       1.44830000       0.18000000
C        0.04970000       0.05470000       0.03930000
C        0.36860000      -0.74840000      -1.24090000
C        1.04560000      -1.76240000      -0.29010000
C        0.38750000      -3.12710000      -0.16600000
C        2.57020000      -1.85930000      -0.38770000
O        3.11160000      -2.32280000       0.83240000
O        0.73170000      -0.92350000       0.86890000
H        1.68940000       1.46460000      -0.09260000
H        0.09350000       2.15100000      -0.46770000
H        0.53550000       1.79800000       1.21310000
H       -1.01970000       0.07050000       0.28830000
H       -0.49570000      -1.12880000      -1.78760000
H        1.04480000      -0.24850000      -1.93900000
H        0.51120000      -3.69650000      -1.09400000
H        0.85130000      -3.69060000       0.64790000
H       -0.68160000      -3.02420000       0.03880000
H        2.86660000      -2.57060000      -1.16730000
H        2.98110000      -0.87320000      -0.65790000
H        2.72270000      -1.75580000       1.51170000
