16
Properties=species:S:1:pos:R:3 gdb_128182=T pbc="F F F"
C        0.13150000       1.45250000       0.12090000
N       -0.20930000       0.06230000      -0.14380000
C        0.47410000      -0.70350000      -1.06220000
C        0.57940000      -2.05620000      -1.03790000
C        1.26640000      -2.73260000      -2.10870000
N        1.42240000      -4.00290000      -2.16250000
N        1.80170000      -1.90610000      -3.16370000
N        1.69960000      -0.65870000      -3.15600000
N        1.06490000      -0.03970000      -2.11530000
H        1.19350000       1.60600000       0.35930000
H       -0.13410000       2.09340000      -0.72770000
H       -0.46450000       1.79480000       0.96830000
H       -0.48630000      -0.46640000       0.66920000
H        0.15470000      -2.63920000      -0.23100000
H        1.94100000      -4.23060000      -3.01310000
H        0.98860000       0.95430000      -2.24340000
