13
Properties=species:S:1:pos:R:3 gdb_125536=T pbc="F F F"
C        0.03490000       1.43440000      -0.01400000
C       -0.05340000      -0.04260000      -0.00950000
N       -1.09810000      -0.76340000      -0.27190000
N       -0.61690000      -2.04990000      -0.12060000
C       -0.94880000      -3.37750000      -0.18340000
N        0.11960000      -4.08520000       0.11210000
N        1.19640000      -3.23390000       0.38050000
C        0.69080000      -2.04860000       0.22470000
O        1.08660000      -0.75180000       0.30490000
H        0.78420000       1.77090000      -0.73700000
H       -0.93750000       1.84970000      -0.27850000
H        0.33290000       1.80300000       0.97230000
H       -1.92400000      -3.75800000      -0.43380000
