21
Properties=species:S:1:pos:R:3 gdb_114231=T pbc="F F F"
C       -0.41130000       1.27490000       0.36890000
C       -0.06890000      -0.19700000       0.32550000
C        1.23070000      -0.68330000      -0.31080000
C        1.02680000      -0.76790000       1.16620000
C        1.82410000      -0.15240000       2.31170000
C        1.61230000      -1.52220000       2.99110000
C        0.70970000      -1.57250000       4.21140000
O        0.24720000      -2.88910000       4.43070000
O        0.89120000      -2.03110000       1.83110000
H        0.48140000       1.88410000       0.54730000
H       -0.85090000       1.60700000      -0.57790000
H       -1.12920000       1.49640000       1.16660000
H       -0.91490000      -0.86680000       0.18970000
H        1.20470000      -1.61290000      -0.86930000
H        1.92720000       0.05870000      -0.69130000
H        2.86050000       0.09760000       2.07920000
H        1.35110000       0.69310000       2.81840000
H        2.51840000      -2.11440000       3.16190000
H        1.26190000      -1.26630000       5.10740000
H       -0.12680000      -0.86710000       4.07220000
H       -0.11430000      -3.18100000       3.58420000
