13
Properties=species:S:1:pos:R:3 gdb_49970=T pbc="F F F"
O       -0.15660000       0.64610000       0.68980000
C        0.36640000       0.91000000      -0.36180000
C        1.55920000       1.82510000      -0.43190000
O        2.37270000       1.73700000      -1.57580000
C        1.64130000       2.94470000      -1.44980000
C        0.52190000       3.17340000      -2.43250000
O        0.00400000       2.30620000      -3.08400000
C        2.44210000       4.15130000      -1.01640000
O        3.48270000       4.07030000      -0.42290000
H        0.03490000       0.50130000      -1.33310000
H        2.07450000       2.00960000       0.51050000
H        0.20310000       4.23490000      -2.51540000
H        1.98490000       5.13060000      -1.27400000
