19
Properties=species:S:1:pos:R:3 gdb_112437=T pbc="F F F"
C        0.05790000       1.67380000      -0.01500000
C       -0.16760000       0.16030000      -0.08690000
C        0.69140000      -0.50870000      -1.14780000
O        2.08800000      -0.35730000      -0.82720000
C        2.77360000      -1.44210000      -1.26870000
O        3.95900000      -1.53830000      -1.28550000
O        1.91100000      -2.40360000      -1.68740000
C        0.56270000      -2.03800000      -1.33100000
C        0.12710000      -2.84420000      -0.11510000
H        1.09990000       1.89950000       0.22560000
H       -0.17950000       2.15550000      -0.96960000
H       -0.57600000       2.12360000       0.75410000
H        0.04000000      -0.29600000       0.88640000
H       -1.21830000      -0.05210000      -0.32180000
H        0.52670000      -0.01490000      -2.11560000
H       -0.07120000      -2.27400000      -2.18960000
H        0.75420000      -2.62370000       0.75340000
H       -0.91430000      -2.62960000       0.14140000
H        0.21400000      -3.91080000      -0.33680000
