18
Properties=species:S:1:pos:R:3 gdb_32607=T pbc="F F F"
C       -0.00780000       1.57820000      -0.02700000
C        0.05130000       0.04800000      -0.03890000
N        0.67800000      -0.49360000      -1.22820000
C        0.06170000      -0.77380000      -2.46670000
C        1.04010000      -1.12520000      -3.31240000
N        1.11160000      -1.42530000      -4.66520000
O        2.25600000      -1.07720000      -2.66220000
C        2.03110000      -0.66880000      -1.35310000
N        2.91040000      -0.49320000      -0.45170000
H        1.00260000       1.99330000      -0.06590000
H       -0.57440000       1.95940000      -0.88260000
H       -0.49150000       1.93220000       0.88900000
H        0.63380000      -0.31090000       0.81390000
H       -0.95430000      -0.38040000       0.03700000
H       -1.00370000      -0.71840000      -2.60140000
H        0.19580000      -1.55150000      -5.07590000
H        1.68840000      -2.23950000      -4.84940000
H        3.83930000      -0.69730000      -0.80790000
