19
Properties=species:S:1:pos:R:3 gdb_15385=T pbc="F F F"
C        0.19560000       1.51580000       0.10590000
C        0.00320000       0.00190000       0.22500000
C       -1.36490000      -0.45480000      -0.28160000
N       -1.47970000      -1.90950000      -0.18960000
C       -2.01610000      -2.45470000       1.04400000
C       -2.82600000      -2.51050000      -0.21880000
C       -4.01430000      -1.71210000      -0.35180000
C       -5.01740000      -1.06550000      -0.50530000
H        1.17970000       1.81960000       0.47500000
H        0.11500000       1.84610000      -0.93570000
H       -0.55910000       2.06090000       0.68380000
H        0.78060000      -0.52650000      -0.33820000
H        0.11780000      -0.30590000       1.27220000
H       -2.16450000       0.06270000       0.27350000
H       -1.48390000      -0.18030000      -1.33660000
H       -1.54520000      -3.35920000       1.41980000
H       -2.36020000      -1.75860000       1.80760000
H       -2.85920000      -3.45300000      -0.76110000
H       -5.90380000      -0.49430000      -0.63000000
