19
Properties=species:S:1:pos:R:3 gdb_79579=T pbc="F F F"
C       -0.07130000       1.54450000      -0.13120000
C        0.07570000       0.04560000       0.03630000
C        1.36150000      -0.74150000      -0.17550000
C        2.54350000      -0.04420000       0.45170000
O        3.01970000      -0.83870000       1.55550000
C        1.88780000       0.03610000       1.77360000
C        1.97520000       1.02120000       2.89490000
C        0.66410000      -0.67110000       1.21330000
O       -0.06740000      -1.63280000       1.87870000
H        0.80410000       2.08730000       0.23340000
H       -0.20370000       1.79990000      -1.18820000
H       -0.94780000       1.91380000       0.41220000
H       -0.78050000      -0.51340000      -0.34060000
H        1.41470000      -1.59530000      -0.83970000
H        3.25120000       0.64960000       0.01270000
H        2.96750000       1.47770000       2.92930000
H        1.22360000       1.80840000       2.78220000
H        1.79550000       0.52540000       3.85540000
H        0.55570000      -2.29620000       2.19970000
