16
Properties=species:S:1:pos:R:3 gdb_131851=T pbc="F F F"
O        0.07160000       1.31530000      -0.28170000
C       -0.04150000      -0.05670000       0.07900000
C       -1.52650000      -0.37150000       0.15430000
N       -2.14110000      -0.06360000      -1.12890000
C       -3.38880000      -0.47310000      -1.45380000
C       -4.23100000      -0.09800000      -2.48840000
N       -5.34240000      -0.87150000      -2.37510000
N       -5.30660000      -1.66380000      -1.41880000
O       -3.95910000      -1.42060000      -0.73940000
H        0.99370000       1.51010000      -0.47140000
H        0.43450000      -0.70420000      -0.67120000
H        0.42160000      -0.25790000       1.05570000
H       -1.67360000      -1.43080000       0.37740000
H       -1.98290000       0.20970000       0.96860000
H       -1.82080000       0.79870000      -1.54380000
H       -4.10410000       0.63720000      -3.26300000
