16
Properties=species:S:1:pos:R:3 gdb_6526=T pbc="F F F"
C       -0.08400000       1.55110000       0.22230000
C       -0.01980000       0.05870000       0.00250000
O       -1.22670000      -0.53270000      -0.41010000
C        1.25010000      -0.59570000      -0.46750000
C        0.78320000      -0.78170000       0.98180000
O        1.49320000      -0.13840000       1.98230000
C        0.27550000      -2.11200000       1.38790000
O        0.49680000      -2.54100000       2.50070000
H        0.84750000       1.92750000       0.64790000
H       -0.26830000       2.06710000      -0.72740000
H       -0.90100000       1.79200000       0.90830000
H       -1.38060000      -0.27650000      -1.32700000
H        1.16790000      -1.44570000      -1.13700000
H        2.13920000       0.01480000      -0.58010000
H        1.46150000      -0.75450000       2.73340000
H       -0.30040000      -2.67840000       0.63740000
