17
Properties=species:S:1:pos:R:3 gdb_4170=T pbc="F F F"
O       -0.10650000       1.28710000       0.15390000
N       -0.01400000      -0.11410000       0.28610000
C       -1.12430000      -0.66790000       0.02840000
C       -2.51590000      -0.21890000      -0.38200000
C       -2.94620000      -1.72580000      -0.38300000
C       -1.51020000      -2.10670000       0.03410000
C       -0.66910000      -3.27020000      -0.43020000
C       -1.06010000      -3.15960000       1.01660000
H        0.78770000       1.56900000       0.37400000
H       -3.01720000       0.41570000       0.35380000
H       -2.55640000       0.28530000      -1.35130000
H       -3.71620000      -1.97460000       0.35100000
H       -3.25390000      -2.10550000      -1.36020000
H       -1.15680000      -4.02540000      -1.03840000
H        0.35820000      -3.05520000      -0.70350000
H       -0.30040000      -2.86890000       1.73410000
H       -1.81530000      -3.83910000       1.39870000
