19
Properties=species:S:1:pos:R:3 gdb_35870=T pbc="F F F"
N       -0.04600000      -1.17300000       0.07140000
C       -0.04050000      -0.01750000       0.05210000
C       -0.00620000       1.45670000      -0.00330000
N       -0.67300000       2.01550000       1.18390000
C        0.40770000       2.22290000       2.16340000
C        1.63530000       2.69110000       1.35580000
C        1.45310000       1.99920000      -0.00030000
C        2.56940000       1.25560000      -0.68360000
C        2.06490000       2.55370000      -1.26130000
H       -0.54850000       1.75600000      -0.90550000
H       -1.06530000       2.91560000       0.92540000
H        0.08910000       2.92910000       2.93310000
H        0.61390000       1.26510000       2.65510000
H        1.61370000       3.78100000       1.23720000
H        2.58250000       2.42980000       1.83620000
H        3.54040000       1.25000000      -0.19980000
H        2.32530000       0.33320000      -1.20020000
H        1.48530000       2.51220000      -2.17860000
H        2.69010000       3.43660000      -1.17120000
