16
Properties=species:S:1:pos:R:3 gdb_125926=T pbc="F F F"
C        0.18250000       1.52260000       0.10120000
C        0.04760000       0.01880000      -0.02770000
C        0.74390000      -0.60450000      -1.29100000
C        1.43930000      -1.77920000      -0.68120000
C        2.17360000      -2.90160000      -0.83580000
O        2.47870000      -3.42230000       0.37520000
N        1.92770000      -2.61540000       1.40200000
C        1.33560000      -1.67090000       0.72650000
O        0.64800000      -0.60540000       1.15970000
H        1.23690000       1.81500000       0.10930000
H       -0.30950000       2.01600000      -0.74310000
H       -0.28290000       1.87510000       1.02510000
H       -1.00950000      -0.27100000      -0.01450000
H        0.00540000      -0.85870000      -2.05590000
H        1.44710000       0.10950000      -1.73570000
H        2.55480000      -3.45370000      -1.68090000
