15
Properties=species:S:1:pos:R:3 gdb_6009=T pbc="F F F"
C       -0.07360000       1.55720000       0.05390000
C        0.03770000       0.03720000      -0.00820000
O        0.77150000      -0.38460000       1.13400000
C       -1.31990000      -0.57630000       0.03170000
N       -2.34950000      -1.10220000       0.05110000
C        0.75770000      -0.46130000      -1.28060000
N        0.76020000      -1.84870000      -1.37480000
N        1.36890000       0.37340000      -2.01650000
H        0.92650000       1.98200000      -0.02450000
H       -0.68110000       1.93390000      -0.77010000
H       -0.52800000       1.84240000       1.00500000
H        1.06220000      -1.29240000       0.98110000
H       -0.09850000      -2.31480000      -1.10890000
H        1.16290000      -2.22740000      -2.22050000
H        1.84780000      -0.08400000      -2.79510000
