18
Properties=species:S:1:pos:R:3 gdb_17969=T pbc="F F F"
C       -0.02910000       1.32120000      -0.05460000
C        1.33680000       2.02680000       0.05140000
O        1.74920000       2.45920000       1.33960000
C        1.71650000       1.50390000       2.39810000
C        2.37240000       0.19320000       2.05370000
C        1.72600000      -0.81680000       1.47010000
C        0.26040000      -0.79020000       1.08770000
O        0.00760000      -0.09450000      -0.12860000
H       -0.69210000       1.66140000       0.75710000
H       -0.48960000       1.62510000      -1.00050000
H        2.08610000       1.37370000      -0.41690000
H        1.29460000       2.95530000      -0.52750000
H        2.23590000       1.99250000       3.22730000
H        0.67910000       1.33500000       2.72020000
H        3.44240000       0.11490000       2.23080000
H        2.27900000      -1.71000000       1.18880000
H       -0.09510000      -1.80950000       0.91280000
H       -0.35170000      -0.36510000       1.89690000
