21
Properties=species:S:1:pos:R:3 gdb_40091=T pbc="F F F"
C       -0.49530000       1.27140000       0.03190000
C        0.98660000       1.00990000      -0.08050000
C        0.02440000      -0.13620000       0.03020000
C       -0.08380000      -1.18830000       1.14330000
C       -0.44900000      -2.25800000       0.06660000
C       -1.92860000      -2.65050000      -0.05200000
C       -2.53740000      -1.47820000      -0.84200000
O       -1.51320000      -1.05160000      -1.73600000
C       -0.27730000      -1.18210000      -1.05800000
H       -0.87390000       1.67390000       0.96650000
H       -1.02990000       1.60150000      -0.85280000
H        1.46770000       1.17930000      -1.03930000
H        1.61200000       1.23440000       0.77830000
H        0.85560000      -1.39400000       1.66450000
H       -0.85990000      -1.00500000       1.89420000
H        0.21920000      -3.11890000       0.03120000
H       -2.02400000      -3.57610000      -0.62810000
H       -2.41460000      -2.80180000       0.91620000
H       -3.40960000      -1.75340000      -1.44060000
H       -2.82780000      -0.65970000      -0.16620000
H        0.50040000      -1.32340000      -1.81310000
