17
Properties=species:S:1:pos:R:3 gdb_124469=T pbc="F F F"
C       -0.18520000       1.52080000      -0.08430000
C        0.01130000      -0.00070000       0.03380000
C        0.86710000      -0.36100000       1.26090000
O       -1.24800000      -0.66800000       0.08560000
C        0.65700000      -0.53220000      -1.21470000
C        0.24640000      -1.43080000      -2.15040000
N        1.25860000      -1.52660000      -3.07580000
N        2.21830000      -0.77900000      -2.78220000
O        1.86630000      -0.09370000      -1.54710000
H        0.77080000       2.03200000      -0.22340000
H       -0.83500000       1.75080000      -0.93220000
H       -0.65090000       1.90680000       0.82910000
H        0.39740000       0.03230000       2.16920000
H        0.95290000      -1.44640000       1.35330000
H        1.86970000       0.06690000       1.18130000
H       -1.70860000      -0.36230000       0.87370000
H       -0.66620000      -1.99310000      -2.22270000
