17
Properties=species:S:1:pos:R:3 gdb_52986=T pbc="F F F"
C        0.00290000       1.50340000      -0.03250000
C       -0.01070000       0.04910000      -0.01970000
C       -0.01590000      -1.15650000      -0.00710000
C        0.00050000      -2.57570000       0.04380000
C       -0.38530000      -3.45250000      -1.16060000
C       -1.15940000      -3.63830000       0.08710000
C       -0.36460000      -4.52720000       1.05030000
C        0.74800000      -3.44480000       1.03240000
O        1.72470000      -3.26970000       1.69920000
H        0.88540000       1.88910000       0.48970000
H        0.02510000       1.89590000      -1.05530000
H       -0.88190000       1.91690000       0.46470000
H       -0.85640000      -2.88410000      -1.95480000
H        0.29940000      -4.22440000      -1.50260000
H       -2.21090000      -3.40200000       0.17370000
H       -0.78850000      -4.59740000       2.05610000
H       -0.10820000      -5.53030000       0.69690000
