21
Properties=species:S:1:pos:R:3 gdb_81331=T pbc="F F F"
C       -0.13220000       1.52100000       0.01970000
C        0.05790000       0.00500000       0.02980000
O       -1.22180000      -0.63050000       0.00820000
C        1.00970000      -0.54610000      -1.10110000
C        2.02210000      -1.31710000      -0.23460000
C        1.09570000      -2.01380000       0.80690000
C        0.81910000      -0.54440000       1.25120000
C        2.31220000      -0.25550000       0.87260000
O        3.28840000      -0.55690000       1.83830000
H        0.81360000       2.06090000       0.11450000
H       -0.59690000       1.84180000      -0.92120000
H       -0.78880000       1.82190000       0.84170000
H       -1.69850000      -0.30480000      -0.76280000
H        0.45420000      -1.19500000      -1.78410000
H        1.48070000       0.25240000      -1.68380000
H        2.83110000      -1.84370000      -0.74270000
H        0.24660000      -2.59210000       0.44230000
H        1.63870000      -2.60240000       1.55110000
H        0.41680000      -0.28950000       2.23220000
H        2.56000000       0.75240000       0.52900000
H        3.11330000      -1.43000000       2.20320000
