13
Properties=species:S:1:pos:R:3 gdb_45950=T pbc="F F F"
O        0.00810000       0.00870000      -0.11200000
C        0.01360000       1.20720000      -0.04340000
C       -1.20650000       2.12610000       0.00690000
O       -0.70950000       3.47400000       0.01160000
C        0.65380000       3.53410000      -0.01880000
O        1.25940000       4.56150000      -0.04930000
C        1.19320000       2.12940000       0.01690000
C        2.45660000       1.79560000       0.71630000
O        2.38570000       1.82410000      -0.69280000
H       -1.84990000       1.97610000      -0.86570000
H       -1.79590000       1.95080000       0.91280000
H        3.00540000       2.61370000       1.17850000
H        2.54030000       0.80790000       1.16580000
