14
Properties=species:S:1:pos:R:3 gdb_28535=T pbc="F F F"
N       -0.09700000       1.36550000       0.11840000
C       -0.04110000      -0.00110000       0.01590000
N       -1.16720000      -0.70510000      -0.00340000
C       -1.06570000      -2.03620000      -0.04800000
O       -2.21460000      -2.74990000      -0.06270000
C        0.15770000      -2.68980000      -0.08520000
N        1.29630000      -1.97470000      -0.07880000
C        1.20670000      -0.67090000      -0.02770000
O        2.33240000       0.09620000      -0.02540000
H        0.72800000       1.86930000      -0.16490000
H       -0.98120000       1.78530000      -0.12230000
H       -2.93320000      -2.10520000      -0.02710000
H        0.22600000      -3.76980000      -0.12540000
H        3.07800000      -0.51650000      -0.07440000
