16
Properties=species:S:1:pos:R:3 gdb_45647=T pbc="F F F"
O       -0.11450000      -0.02250000       0.20830000
C       -0.03470000       1.16790000       0.10590000
C       -1.22940000       2.17940000       0.15170000
C       -0.58430000       3.46550000       0.64340000
C        0.73470000       3.37270000       0.49080000
C        2.07970000       3.61530000       1.13900000
N        2.14730000       2.50480000       2.14690000
C        2.50640000       2.23100000       0.74140000
C        1.20250000       2.06170000      -0.08510000
H       -1.67140000       2.24640000      -0.85300000
H       -2.01820000       1.81130000       0.81610000
H       -1.13530000       4.23900000       1.16520000
H        2.65740000       4.52080000       1.26650000
H        3.02550000       2.62320000       2.65480000
H        3.48760000       1.86110000       0.47390000
H        1.43890000       2.11780000      -1.15630000
