18
Properties=species:S:1:pos:R:3 gdb_10689=T pbc="F F F"
C        0.24590000       1.41930000       0.33120000
C       -0.07950000      -0.03100000      -0.03060000
O       -1.47520000      -0.22740000      -0.19810000
C        0.69490000      -0.51720000      -1.26140000
C        2.11700000      -1.01850000      -1.06580000
C        1.01840000      -1.99870000      -1.35680000
C        0.36400000       0.17770000      -2.47720000
C        0.03380000       0.77530000      -3.46930000
H        1.30880000       1.53970000       0.56420000
H        0.00590000       2.08690000      -0.50300000
H       -0.34190000       1.72460000       1.20070000
H        0.19820000      -0.68210000       0.80710000
H       -1.73410000       0.24700000      -0.99780000
H        2.83720000      -0.80190000      -1.84560000
H        2.51470000      -0.97330000      -0.05720000
H        0.65360000      -2.62710000      -0.55190000
H        0.98600000      -2.45460000      -2.33900000
H       -0.23350000       1.29580000      -4.35550000
