20
Properties=species:S:1:pos:R:3 gdb_118363=T pbc="F F F"
O       -0.17530000       1.52300000       0.08530000
C       -0.00590000       0.12350000      -0.05020000
C       -1.38190000      -0.52280000       0.06260000
C       -1.33530000      -2.05450000      -0.04930000
C       -0.61670000      -2.66130000       1.14850000
O       -0.00950000      -3.70160000       1.13040000
C       -2.74140000      -2.64610000      -0.18860000
C       -3.01290000      -4.09070000      -0.00790000
N       -3.53920000      -3.11050000       0.96180000
H        0.68580000       1.94290000       0.00140000
H        0.44370000      -0.13750000      -1.02260000
H        0.66640000      -0.27430000       0.72960000
H       -1.83560000      -0.22970000       1.01780000
H       -2.02480000      -0.11300000      -0.72320000
H       -0.76770000      -2.34950000      -0.94190000
H       -0.70700000      -2.07270000       2.09240000
H       -3.34230000      -2.10740000      -0.91950000
H       -3.76780000      -4.57750000      -0.61860000
H       -2.18400000      -4.72570000       0.29190000
H       -2.97980000      -3.13250000       1.81130000
