17
Properties=species:S:1:pos:R:3 gdb_79651=T pbc="F F F"
C       -0.04040000       1.61080000      -0.02510000
C        0.14300000       0.09670000       0.04740000
C        1.38080000      -0.71950000      -0.20080000
C        2.66500000      -0.15600000       0.46830000
O        2.36000000       1.08040000       1.13390000
C        2.03980000      -0.15100000       1.78220000
C        0.70190000      -0.73170000       1.19950000
C       -0.00100000      -1.78610000       1.83600000
C       -0.58160000      -2.67500000       2.40580000
H        0.74550000       2.08760000      -0.61260000
H       -1.00280000       1.83820000      -0.49460000
H       -0.03090000       2.07050000       0.96430000
H       -0.71130000      -0.44420000      -0.35580000
H        1.40620000      -1.54690000      -0.89840000
H        3.68810000      -0.32430000       0.15750000
H        2.42370000      -0.33120000       2.77850000
H       -1.09770000      -3.45930000       2.90100000
