10
Properties=species:S:1:pos:R:3 gdb_130838=T pbc="F F F"
O       -0.08030000      -0.00320000       0.00200000
C       -0.04460000       1.19180000       0.00870000
C        1.33990000       1.89150000      -0.00100000
O        2.38390000       1.32500000      -0.01480000
N        1.27810000       3.33790000       0.00820000
N        0.13850000       4.04650000       0.02330000
N        0.49860000       5.27530000       0.02770000
N        1.86970000       5.33610000       0.01410000
N        2.34690000       4.14710000       0.00200000
H       -0.93370000       1.84280000       0.02150000
