21
Properties=species:S:1:pos:R:3 gdb_112770=T pbc="F F F"
C        0.34450000       1.51850000       0.07790000
C        0.08160000       0.00970000       0.04500000
C        0.54190000      -0.61370000      -1.25800000
O        1.96640000      -0.48980000      -1.46640000
C        2.12030000      -1.89750000      -1.74490000
C        3.21280000      -2.54220000      -0.92160000
C        0.61870000      -2.17030000      -1.39420000
C        0.33320000      -2.96900000      -0.22090000
C        0.09560000      -3.63910000       0.74960000
H        1.40930000       1.72370000      -0.06400000
H       -0.20590000       2.03640000      -0.71560000
H        0.03730000       1.95040000       1.03480000
H        0.59470000      -0.48410000       0.87680000
H       -0.98930000      -0.19760000       0.16710000
H       -0.00600000      -0.16720000      -2.10150000
H        2.30910000      -2.05620000      -2.81620000
H        3.01100000      -2.44150000       0.14740000
H        3.29540000      -3.60740000      -1.16140000
H        4.17120000      -2.06320000      -1.14550000
H        0.04660000      -2.55140000      -2.24410000
H       -0.11740000      -4.23080000       1.60530000
