23
Properties=species:S:1:pos:R:3 gdb_106318=T pbc="F F F"
C        0.08050000       1.49110000      -0.18530000
C       -0.01420000      -0.01190000       0.11460000
C       -1.42770000      -0.52880000       0.08060000
C       -2.50470000      -0.20250000       1.13160000
C       -2.96940000      -1.69650000       1.11760000
C       -4.44460000      -2.03780000       0.93800000
C       -1.97330000      -1.98330000      -0.01730000
C       -2.09540000      -1.03380000      -1.16440000
O       -3.35190000      -0.59720000      -1.61330000
H        1.11580000       1.84210000      -0.13170000
H       -0.29850000       1.71750000      -1.18800000
H       -0.50700000       2.07480000       0.53130000
H        0.59390000      -0.57020000      -0.60860000
H        0.42560000      -0.21270000       1.10110000
H       -2.08950000       0.10940000       2.09330000
H       -3.25520000       0.52950000       0.81820000
H       -2.59690000      -2.17850000       2.02800000
H       -4.85240000      -1.55560000       0.04820000
H       -4.58220000      -3.12020000       0.83290000
H       -5.02590000      -1.71570000       1.81000000
H       -1.42400000      -2.91300000      -0.12980000
H       -1.39500000      -1.25270000      -1.97360000
H       -3.25480000       0.30760000      -1.92890000
