20
Properties=species:S:1:pos:R:3 gdb_105990=T pbc="F F F"
C        0.20330000       1.48300000      -0.11970000
C       -0.11280000      -0.00210000       0.10310000
C        0.53650000      -0.55490000       1.32910000
C        0.48250000      -0.14260000       2.82850000
C        1.95780000      -0.42690000       2.89800000
C        0.99370000      -1.53940000       3.20800000
C        1.03590000      -1.91220000       1.69980000
C        1.06030000      -3.21970000       0.98520000
N        2.03080000      -0.80300000       1.42180000
H        1.28330000       1.63350000      -0.20450000
H       -0.27040000       1.85260000      -1.03390000
H       -0.15710000       2.09420000       0.71450000
H       -1.19890000      -0.15150000       0.17050000
H        0.23020000      -0.58780000      -0.75860000
H       -0.14350000       0.52940000       3.39880000
H        2.76530000       0.02200000       3.46290000
H        0.82130000      -2.10540000       4.11270000
H        0.12240000      -3.76830000       1.12820000
H        1.20660000      -3.06200000      -0.08770000
H        1.88180000      -3.84860000       1.34700000
