16
Properties=species:S:1:pos:R:3 gdb_35112=T pbc="F F F"
C       -0.32330000      -1.22930000      -0.70810000
C       -0.18760000      -0.11190000      -0.28880000
C        0.01080000       1.25780000       0.19860000
N       -0.54470000       1.39000000       1.55040000
C        0.11890000       1.97670000       2.45100000
O        1.36080000       2.51570000       2.41930000
C        2.10020000       2.37010000       1.22800000
C        2.55720000       0.99910000       0.82000000
C        1.46550000       1.70340000       0.04510000
H       -0.45680000      -2.21740000      -1.07350000
H       -0.59500000       1.92150000      -0.43480000
H       -0.30570000       2.10950000       3.44400000
H        2.75260000       3.22500000       1.09740000
H        3.53540000       0.89500000       0.36480000
H        2.25850000       0.17040000       1.45370000
H        1.71930000       2.08570000      -0.93800000
