15
Properties=species:S:1:pos:R:3 gdb_63456=T pbc="F F F"
C       -0.06170000       1.53370000      -0.05090000
C        0.04700000       0.02910000      -0.07580000
O       -1.01720000      -0.64780000      -0.64060000
C        1.34130000      -0.66370000      -0.25390000
C        0.71860000      -0.70140000       1.15910000
C        1.33030000       0.09450000       2.18850000
N        1.81990000       0.76760000       2.99190000
C        0.09990000      -1.92290000       1.59860000
N       -0.41920000      -2.89350000       1.95220000
H        0.80800000       1.99750000       0.41790000
H       -0.15090000       1.90320000      -1.07670000
H       -0.95080000       1.84750000       0.50710000
H       -1.83040000      -0.40450000      -0.18140000
H        1.32860000      -1.60500000      -0.78990000
H        2.24530000      -0.07460000      -0.34970000
