17
Properties=species:S:1:pos:R:3 gdb_2038=T pbc="F F F"
C       -0.05310000       1.55950000       0.03710000
C        0.03560000       0.04270000       0.08680000
C       -1.29330000      -0.62210000      -0.24840000
O        1.07370000      -0.47380000      -0.82350000
C        1.66620000      -1.20850000       0.24640000
C        2.21420000      -0.29350000       1.29390000
C        0.73580000      -0.62820000       1.28090000
H        0.89880000       2.02760000       0.29690000
H       -0.32880000       1.88720000      -0.97060000
H       -0.81810000       1.92000000       0.73290000
H       -1.62530000      -0.32100000      -1.24660000
H       -1.19400000      -1.71060000      -0.23050000
H       -2.06480000      -0.33140000       0.47360000
H        2.00670000      -2.21780000       0.04540000
H        2.76980000      -0.77560000       2.09290000
H        2.57760000       0.69040000       1.01320000
H        0.22710000      -1.09420000       2.11480000
