20
Properties=species:S:1:pos:R:3 gdb_86820=T pbc="F F F"
C        0.02620000       1.47860000       0.15790000
N       -0.06100000       0.03640000       0.15360000
C       -1.34150000      -0.59570000       0.52950000
C       -0.53520000      -1.70580000       1.22290000
C        0.65370000      -0.72200000       1.20120000
O       -1.06960000      -2.08260000       2.48970000
C       -0.36600000      -3.02020000       3.16610000
C       -1.04900000      -3.36480000       4.46680000
O        0.66270000      -3.49870000       2.76110000
H        1.05440000       1.78790000      -0.05740000
H       -0.61870000       1.89220000      -0.62490000
H       -0.27320000       1.93060000       1.12340000
H       -1.91740000      -0.02030000       1.27300000
H       -1.99480000      -0.86460000      -0.30660000
H       -0.36540000      -2.59520000       0.61570000
H        1.63780000      -1.10430000       0.91850000
H        0.72880000      -0.18330000       2.16060000
H       -1.19870000      -2.46200000       5.06520000
H       -2.03730000      -3.78990000       4.26800000
H       -0.44140000      -4.08250000       5.01650000
