21
Properties=species:S:1:pos:R:3 gdb_84112=T pbc="F F F"
C       -0.01240000       1.50650000       0.04030000
C       -0.00660000       0.00850000      -0.02240000
C       -0.03900000      -0.70230000      -1.15520000
C       -0.01670000      -2.21300000      -1.10280000
O        1.05370000      -2.75660000      -1.87770000
C        0.02900000      -2.68880000       0.36100000
C       -1.03310000      -1.91730000       1.19660000
C        0.02790000      -0.77470000       1.27990000
C        1.10460000      -1.89450000       1.15630000
H        0.87630000       1.88290000       0.56350000
H       -0.03910000       1.95420000      -0.95670000
H       -0.87980000       1.87340000       0.60450000
H       -0.06120000      -0.23150000      -2.13460000
H       -0.91900000      -2.62130000      -1.57760000
H        1.85830000      -2.29840000      -1.61140000
H        0.04850000      -3.77960000       0.40410000
H       -1.99020000      -1.67960000       0.72490000
H       -1.20610000      -2.39250000       2.16650000
H        0.03840000      -0.12740000       2.15930000
H        1.31520000      -2.36740000       2.11920000
H        2.04740000      -1.63820000       0.66370000
