15
Properties=species:S:1:pos:R:3 gdb_28510=T pbc="F F F"
N       -0.06550000       1.42250000      -0.15460000
C       -0.05100000       0.03410000      -0.08540000
C       -1.19920000      -0.75040000      -0.06500000
C       -1.08890000      -2.14480000      -0.05590000
O       -2.17400000      -2.97440000      -0.03680000
C        0.17630000      -2.71600000      -0.06300000
N        1.28850000      -1.96650000      -0.07710000
C        1.17820000      -0.65860000      -0.08860000
O        2.31310000       0.09970000      -0.09720000
H        0.80310000       1.85030000       0.13170000
H       -0.87210000       1.86800000       0.25720000
H       -2.17780000      -0.27580000      -0.06130000
H       -2.97740000      -2.44520000      -0.04920000
H        0.29210000      -3.79430000      -0.05370000
H        3.04830000      -0.52680000      -0.08110000
