17
Properties=species:S:1:pos:R:3 gdb_7267=T pbc="F F F"
C        0.32910000       1.42250000       0.37520000
N        0.02540000       0.04920000       0.00550000
C        1.13660000      -0.82010000      -0.33980000
C       -1.27020000      -0.38860000       0.13720000
O       -2.20250000       0.33600000       0.44380000
N       -1.45950000      -1.74760000      -0.11540000
C       -2.70360000      -2.34650000      -0.05380000
N       -2.82040000      -3.59560000      -0.26280000
H        0.83870000       1.93820000      -0.44690000
H       -0.60930000       1.92910000       0.59310000
H        0.97410000       1.46220000       1.26260000
H        1.41540000      -1.50340000       0.47510000
H        0.92550000      -1.40950000      -1.23900000
H        2.00660000      -0.19980000      -0.56300000
H       -0.69080000      -2.36830000      -0.31280000
H       -3.49180000      -1.63010000       0.18240000
H       -3.79620000      -3.87380000      -0.18150000
