18
Properties=species:S:1:pos:R:3 gdb_117517=T pbc="F F F"
C       -0.61700000       1.54040000       0.56430000
C       -0.27490000       0.07710000       0.34950000
O       -1.47610000      -0.61850000       0.03390000
C       -1.31010000      -2.00240000      -0.22370000
C       -0.89040000      -2.75190000       0.96420000
C       -0.55090000      -3.34560000       1.95200000
C       -2.63900000      -2.58790000      -0.77160000
N       -3.70970000      -1.78170000      -0.58700000
O       -2.66290000      -3.68080000      -1.29440000
H        0.28740000       2.10690000       0.80490000
H       -1.06550000       1.97060000      -0.33580000
H       -1.32440000       1.65290000       1.39090000
H        0.44390000      -0.04020000      -0.47690000
H        0.18120000      -0.35700000       1.24950000
H       -0.56970000      -2.15590000      -1.02390000
H       -0.25390000      -3.88430000       2.81810000
H       -3.57840000      -0.85310000      -0.22370000
H       -4.60120000      -2.07060000      -0.95310000
