18
Properties=species:S:1:pos:R:3 gdb_7636=T pbc="F F F"
C        0.08870000       1.49260000      -0.09700000
C       -0.02420000      -0.02650000       0.03430000
O        0.73430000      -0.51220000       1.13860000
C       -1.47170000      -0.50520000       0.11410000
C       -2.32350000      -0.43190000      -1.19480000
C       -2.68410000      -1.91280000      -0.97850000
O       -3.48850000      -2.64650000      -1.47390000
C       -1.68230000      -2.05010000       0.17660000
H        1.13890000       1.79160000      -0.14770000
H       -0.42050000       1.85680000      -0.99490000
H       -0.36780000       1.98990000       0.76840000
H        0.44550000      -0.49730000      -0.84020000
H        0.40130000      -0.08340000       1.93500000
H       -1.97780000       0.00100000       0.94440000
H       -3.16580000       0.26360000      -1.22690000
H       -1.72110000      -0.28700000      -2.09950000
H       -0.78880000      -2.61700000      -0.10730000
H       -2.07840000      -2.48100000       1.09940000
