12
Properties=species:S:1:pos:R:3 gdb_42260=T pbc="F F F"
O        0.32850000       0.28600000       0.79270000
C        0.16020000       1.28850000       0.15140000
C        1.23740000       1.85930000      -0.68510000
N        2.06750000       2.32180000      -1.34380000
C       -1.10550000       2.09330000       0.12450000
O       -2.25450000       1.48790000       0.67530000
C       -1.70200000       2.57870000       1.41100000
C       -1.11610000       2.31020000       2.69150000
C       -0.64210000       2.13040000       3.78030000
H       -1.25650000       2.70350000      -0.76600000
H       -2.27840000       3.50060000       1.34000000
H       -0.21970000       1.95440000       4.73960000
