18
Properties=species:S:1:pos:R:3 gdb_122715=T pbc="F F F"
O       -0.18170000       1.47160000       0.08490000
C       -0.02120000       0.07130000       0.02990000
C       -1.35870000      -0.64800000      -0.03260000
O       -1.99150000      -0.21470000      -1.24510000
C       -3.28460000      -0.54520000      -1.40600000
N       -3.90160000      -0.21430000      -2.45240000
C       -5.29330000      -0.58860000      -2.55480000
C       -6.15740000       0.63010000      -2.85890000
O       -7.32660000       0.70520000      -2.58880000
H       -0.68830000       1.72250000      -0.69620000
H        0.59170000      -0.23770000      -0.83090000
H        0.50470000      -0.22950000       0.94170000
H       -1.21960000      -1.73710000      -0.04640000
H       -1.97710000      -0.37170000       0.83020000
H       -3.72190000      -1.10800000      -0.56740000
H       -5.41830000      -1.26760000      -3.41320000
H       -5.70750000      -1.10160000      -1.67270000
H       -5.61110000       1.45000000      -3.37400000
