21
Properties=species:S:1:pos:R:3 gdb_121010=T pbc="F F F"
C       -0.15280000       1.61170000       0.00930000
C       -0.08450000       0.08270000      -0.01180000
C        0.74660000      -0.45250000      -1.18410000
C        0.85650000      -1.98710000      -1.23640000
C        1.46120000      -2.54280000      -2.54670000
C        2.55160000      -3.48140000      -2.09940000
C        2.71350000      -3.49970000      -0.77190000
C        1.75100000      -2.57940000      -0.12470000
O        1.67700000      -2.33150000       1.05900000
H        0.84520000       2.05140000       0.11670000
H       -0.58880000       2.00660000      -0.91590000
H       -0.76340000       1.97030000       0.84380000
H        0.33510000      -0.29290000       0.92530000
H       -1.10070000      -0.32920000      -0.08090000
H        0.30440000      -0.10570000      -2.12800000
H        1.75740000      -0.02230000      -1.14770000
H       -0.14520000      -2.41070000      -1.08620000
H        0.72210000      -3.05690000      -3.17270000
H        1.88050000      -1.74330000      -3.17220000
H        3.13590000      -4.05870000      -2.80880000
H        3.43800000      -4.07110000      -0.20590000
