15
Properties=species:S:1:pos:R:3 gdb_71187=T pbc="F F F"
O       -0.06930000       1.43550000       0.00960000
C       -0.03560000       0.06210000      -0.00530000
C        0.51010000      -0.76700000      -1.20090000
C       -0.46690000      -1.84200000      -0.73290000
C       -1.30810000      -0.87170000       0.00100000
N       -0.51890000      -1.87020000       0.77890000
C        0.41120000      -0.77780000       1.23010000
C        1.81970000      -1.11820000       1.40180000
N        2.94660000      -1.35700000       1.50330000
H        0.77260000       1.77880000      -0.31080000
H        0.17820000      -0.33250000      -2.14710000
H        1.58070000      -0.98940000      -1.23040000
H       -0.74640000      -2.76440000      -1.22300000
H       -2.37050000      -0.70660000       0.11170000
H        0.01130000      -0.35830000       2.15640000
