19
Properties=species:S:1:pos:R:3 gdb_57669=T pbc="F F F"
C        0.00070000       1.59730000       0.08260000
C        0.03990000       0.06000000       0.08520000
C        0.77080000      -0.46950000       1.33030000
C       -1.40210000      -0.51640000       0.01980000
C       -2.23170000      -0.13810000       1.15890000
N       -2.88790000       0.16180000       2.06130000
N        0.69690000      -0.43480000      -1.14050000
C        1.98170000      -0.17460000      -1.50280000
O        2.77500000       0.50000000      -0.88030000
H        1.01780000       1.99040000       0.07080000
H       -0.52710000       1.97010000      -0.80090000
H       -0.51300000       1.96590000       0.97470000
H        0.26820000      -0.12900000       2.23970000
H        0.78930000      -1.56400000       1.33280000
H        1.79860000      -0.10490000       1.33510000
H       -1.89640000      -0.16860000      -0.89570000
H       -1.35910000      -1.61170000      -0.02490000
H        0.16370000      -1.01830000      -1.76630000
H        2.23550000      -0.66380000      -2.46540000
