18
Properties=species:S:1:pos:R:3 gdb_12120=T pbc="F F F"
C       -0.07910000       1.39830000      -0.67920000
C       -0.08460000       0.00840000      -0.08140000
C        1.12490000      -0.82370000      -0.13890000
O        0.74190000      -0.16420000       1.07610000
C       -1.43810000      -0.65810000       0.00450000
O       -2.05070000      -0.84100000      -1.24820000
C       -1.68160000      -1.74450000       1.00250000
C       -2.32280000      -0.38310000       1.19460000
H        0.92940000       1.81790000      -0.66790000
H       -0.43080000       1.37340000      -1.71570000
H       -0.73490000       2.06510000      -0.10870000
H        1.03120000      -1.90790000      -0.12870000
H        2.02630000      -0.43490000      -0.61020000
H       -2.46440000      -0.00920000      -1.50230000
H       -2.31910000      -2.55760000       0.67650000
H       -0.87030000      -2.01070000       1.66880000
H       -1.93610000       0.24910000       1.98640000
H       -3.38810000      -0.29850000       1.00900000
