18
Properties=species:S:1:pos:R:3 gdb_53586=T pbc="F F F"
C       -0.02550000       1.41370000      -0.32370000
C       -0.03810000      -0.01150000      -0.02580000
C       -0.03660000      -1.18970000       0.22120000
C       -0.06110000      -2.61890000       0.51900000
C       -1.41350000      -3.24650000       0.21290000
C       -1.73970000      -3.73140000      -1.16300000
C       -1.53600000      -4.74510000      -0.04260000
C       -0.36650000      -5.57770000      -0.04350000
N        0.57820000      -6.24650000      -0.03920000
H        0.80080000       1.67250000      -0.99490000
H       -0.95630000       1.72660000      -0.80980000
H        0.08870000       2.01090000       0.58760000
H        0.72000000      -3.13740000      -0.05070000
H        0.18270000      -2.78480000       1.57650000
H       -2.23630000      -2.82660000       0.78320000
H       -2.74830000      -3.61750000      -1.54260000
H       -0.96140000      -3.67380000      -1.91550000
H       -2.42150000      -5.23570000       0.34690000
