23
Properties=species:S:1:pos:R:3 gdb_87711=T pbc="F F F"
C        0.85340000       1.39770000      -0.29450000
C        0.04410000       0.13130000      -0.03170000
C        0.45980000      -1.06850000      -0.94070000
C        1.19870000      -1.66700000       0.26090000
C        1.64280000      -3.09980000       0.45660000
C        2.66080000      -2.00810000       0.25210000
O        3.43970000      -1.90820000      -0.90630000
C        0.47120000      -0.71390000       1.22290000
C        1.23210000      -0.06200000       2.36890000
H        1.92750000       1.18660000      -0.33430000
H        0.57010000       1.83800000      -1.25690000
H        0.68640000       2.15400000       0.47980000
H       -1.02360000       0.36820000      -0.05750000
H       -0.38790000      -1.67360000      -1.27660000
H        1.07320000      -0.80870000      -1.81150000
H        1.55440000      -3.55160000       1.44090000
H        1.46860000      -3.79160000      -0.36450000
H        3.26110000      -1.71430000       1.10760000
H        2.90790000      -2.19200000      -1.65680000
H       -0.41620000      -1.21830000       1.62660000
H        2.12510000       0.46530000       2.02090000
H        0.60120000       0.66020000       2.89860000
H        1.55350000      -0.81100000       3.10210000
