22
Properties=species:S:1:pos:R:3 gdb_59262=T pbc="F F F"
C       -0.21450000       1.44130000       0.03600000
C        0.12920000      -0.02720000      -0.21710000
O        0.94040000      -0.18760000      -1.38040000
C        0.81910000      -0.65220000       0.98300000
N        0.16400000      -1.02910000       2.26070000
C       -1.16800000      -1.64460000       1.91260000
C       -0.51780000      -2.74840000       1.04540000
C        0.82550000      -2.08090000       1.35680000
C        2.06590000      -2.82920000       1.74770000
H        0.69130000       2.01630000       0.26600000
H       -0.68500000       1.88010000      -0.84800000
H       -0.89340000       1.54370000       0.88840000
H       -0.78790000      -0.57000000      -0.46000000
H        1.75030000       0.31680000      -1.24450000
H        1.75860000      -0.14180000       1.20770000
H       -1.63050000      -2.02450000       2.82560000
H       -1.87420000      -0.96270000       1.42860000
H       -0.60470000      -3.74000000       1.49490000
H       -0.79910000      -2.82080000      -0.00920000
H        2.51560000      -3.31340000       0.87250000
H        2.80960000      -2.15390000       2.18080000
H        1.84380000      -3.60770000       2.48580000
