15
Properties=species:S:1:pos:R:3 gdb_133134=T pbc="F F F"
C        0.01640000       1.49650000       0.01450000
C       -0.03610000      -0.00050000       0.02310000
C       -1.17520000      -0.73120000       0.09440000
F       -2.35080000      -0.11000000       0.16260000
C       -1.16610000      -2.18170000       0.09950000
N       -2.25480000      -2.86710000       0.16760000
C        0.20200000      -2.70520000       0.01940000
N        1.29330000      -2.00930000      -0.04890000
N        1.16190000      -0.67630000      -0.04630000
H        0.59340000       1.87530000       0.86580000
H        0.48780000       1.86890000      -0.90210000
H       -0.99220000       1.90370000       0.07330000
H       -2.03770000      -3.86610000       0.15850000
H        0.33790000      -3.78380000       0.01550000
H        2.02980000      -0.16950000      -0.10040000
