21
Properties=species:S:1:pos:R:3 gdb_102060=T pbc="F F F"
C        0.00770000       1.59050000       0.06270000
C        0.13250000       0.06370000       0.05860000
C        0.69310000      -0.50580000      -1.26720000
C        2.16010000      -0.11790000      -1.35260000
O        2.58690000       0.84270000      -1.93850000
C        0.53970000      -2.05090000      -1.36750000
C       -0.92880000      -2.50080000      -1.50700000
C        1.33200000      -2.56650000      -2.48580000
C        1.97270000      -2.96720000      -3.42100000
H        0.96560000       2.07490000      -0.14550000
H       -0.70190000       1.92620000      -0.70070000
H       -0.35080000       1.94570000       1.03340000
H        0.77870000      -0.26270000       0.88570000
H       -0.84920000      -0.38040000       0.25110000
H        0.18040000      -0.03610000      -2.11410000
H        2.84000000      -0.77960000      -0.76470000
H        0.94320000      -2.48510000      -0.44080000
H       -1.37710000      -2.07180000      -2.40790000
H       -0.98320000      -3.58920000      -1.58910000
H       -1.52440000      -2.19610000      -0.64310000
H        2.54830000      -3.32280000      -4.23970000
