18
Properties=species:S:1:pos:R:3 gdb_85529=T pbc="F F F"
C       -0.79280000       1.35110000       0.03910000
C        0.07610000       0.09270000       0.01060000
N        1.05770000       0.19930000      -1.06810000
C        2.19620000      -0.56110000      -1.20280000
O        2.76880000      -0.72440000      -2.24990000
O        2.69430000      -1.10920000      -0.06190000
C        2.16210000      -0.78070000       1.20270000
C        2.05210000       0.65120000       1.64650000
C        0.80920000      -0.15540000       1.31240000
H       -0.18340000       2.23670000       0.23940000
H       -1.30760000       1.49300000      -0.91760000
H       -1.55570000       1.26730000       0.81860000
H       -0.58080000      -0.77530000      -0.16450000
H        0.70840000       0.49830000      -1.96670000
H        2.47390000      -1.53450000       1.91500000
H        2.25780000       0.88060000       2.68580000
H        2.35910000       1.41490000       0.94070000
H        0.17150000      -0.47250000       2.13130000
