17
Properties=species:S:1:pos:R:3 gdb_1140=T pbc="F F F"
C        0.44730000       1.33990000       0.09500000
C       -0.07130000      -0.08820000      -0.02280000
O       -1.47230000      -0.11680000      -0.22530000
C        0.78400000      -0.99040000      -0.97350000
C        1.48550000      -1.58890000       0.26620000
O        2.73750000      -0.94530000       0.44950000
C        0.34270000      -1.01510000       1.15040000
H        1.52150000       1.34210000       0.29460000
H        0.27750000       1.89100000      -0.83950000
H       -0.06900000       1.86670000       0.90440000
H       -1.68760000       0.51880000      -0.91650000
H        0.14840000      -1.72280000      -1.47610000
H        1.44100000      -0.50240000      -1.69740000
H        1.60470000      -2.67940000       0.28060000
H        3.04910000      -1.15530000       1.33610000
H        0.63270000      -0.54100000       2.09280000
H       -0.43940000      -1.75480000       1.33870000
