15
Properties=species:S:1:pos:R:3 gdb_123379=T pbc="F F F"
C        0.36380000      -0.11240000      -1.20930000
C        0.14010000       0.56680000      -0.24330000
C       -0.09330000       1.39970000       0.94210000
N        1.01830000       2.26380000       1.32620000
C        1.39220000       3.28660000       0.46680000
N        2.62830000       3.79010000       0.48610000
N        2.56030000       4.77810000      -0.41050000
N        1.40120000       4.95350000      -1.01330000
C        0.62620000       4.01030000      -0.47400000
H        0.55700000      -0.70940000      -2.06620000
H       -0.97960000       2.02590000       0.78700000
H       -0.32570000       0.76080000       1.80070000
H        1.82180000       1.75490000       1.67020000
H        3.35940000       5.35330000      -0.61710000
H       -0.39980000       3.89360000      -0.78050000
