17
Properties=species:S:1:pos:R:3 gdb_17044=T pbc="F F F"
C       -0.14460000       1.53480000       0.05210000
C        0.14240000       0.03540000      -0.08690000
C        0.81040000      -0.54430000       1.15360000
C       -0.06180000      -0.85000000       2.41680000
N       -0.63500000      -2.02820000       1.62910000
C        0.86350000      -2.09560000       1.32810000
C        1.04770000      -1.83950000       2.84120000
O        1.58120000      -2.28770000       3.80780000
H        0.77170000       2.10250000       0.24980000
H       -0.59160000       1.93420000      -0.86320000
H       -0.84060000       1.73180000       0.87440000
H       -0.78140000      -0.51000000      -0.29340000
H        0.80900000      -0.12980000      -0.94300000
H        1.75300000      -0.03490000       1.37700000
H       -0.69510000      -0.18260000       2.99830000
H       -0.91780000      -2.78600000       2.25680000
H        1.28470000      -2.84720000       0.66270000
