15
Properties=species:S:1:pos:R:3 gdb_130408=T pbc="F F F"
N        0.35710000       0.84110000       0.48930000
H        0.42450000      -0.14260000       0.72800000
H        1.46870000       2.24580000       1.12130000
H        0.47540000       0.90960000      -0.51790000
C       -0.97190000       1.37900000       0.87610000
C       -0.89110000       2.87290000       0.90600000
C        0.24910000       3.60750000       1.10500000
O        1.50240000       3.22410000       1.27400000
O        0.00900000       4.91630000       1.10150000
N       -1.38460000       5.10880000       0.89520000
C       -1.86670000       3.89270000       0.78290000
O       -3.17680000       3.67610000       0.57260000
H       -1.77980000       1.04770000       0.20960000
H       -1.20260000       0.97270000       1.86950000
H       -3.60790000       4.54030000       0.52360000
