17
Properties=species:S:1:pos:R:3 gdb_74835=T pbc="F F F"
C        0.02680000       1.53130000       0.07370000
C       -0.05950000       0.03630000       0.02580000
C       -1.18300000      -0.66660000      -0.15700000
C       -1.13520000      -2.14520000      -0.13660000
C       -0.57090000      -2.95280000      -1.26860000
N        0.18710000      -2.77700000      -0.02550000
C        1.35750000      -1.98500000      -0.04710000
O        2.45800000      -2.45600000      -0.20530000
N        1.16450000      -0.63190000       0.18750000
H        0.66970000       1.91770000      -0.72680000
H       -0.96240000       1.97870000      -0.03440000
H        0.45600000       1.86670000       1.02570000
H       -2.13500000      -0.16360000      -0.26780000
H       -1.89010000      -2.63710000       0.47620000
H       -0.92080000      -3.96430000      -1.45360000
H       -0.23040000      -2.41040000      -2.14640000
H        2.01790000      -0.09570000       0.22330000
