18
Properties=species:S:1:pos:R:3 gdb_19787=T pbc="F F F"
C        0.01360000       1.57170000       0.05820000
C        0.03000000       0.04040000      -0.00960000
C        0.71700000      -0.55280000      -1.25220000
C        2.19290000      -0.35130000      -1.48740000
C        1.70960000      -1.61490000      -0.81490000
C        1.70950000      -1.60080000       0.69820000
O        2.13040000      -0.35630000       1.28250000
C        0.72320000      -0.62210000       1.17980000
H        1.03200000       1.96540000       0.11440000
H       -0.46860000       1.99810000      -0.82690000
H       -0.53290000       1.92300000       0.93990000
H       -1.00730000      -0.32270000      -0.00550000
H        0.09560000      -0.70960000      -2.12760000
H        2.53830000      -0.43660000      -2.51220000
H        2.73800000       0.35510000      -0.87490000
H        1.79880000      -2.57100000      -1.31660000
H        1.99250000      -2.49040000       1.25410000
H        0.20380000      -0.70240000       2.13340000
