14
Properties=species:S:1:pos:R:3 gdb_129859=T pbc="F F F"
N        0.13320000       1.38960000       0.14610000
C       -0.03560000       0.00040000       0.03490000
C       -1.15000000      -0.80290000       0.04150000
C       -0.66860000      -2.15930000       0.00370000
C        0.70380000      -2.08320000      -0.03040000
N        1.12520000      -0.79170000      -0.02850000
O        1.31350000      -3.26040000      -0.09650000
N        0.26390000      -4.23720000      -0.10170000
C       -0.86730000      -3.56390000      -0.04530000
H        0.42870000       1.82230000      -0.72460000
H       -0.72470000       1.83490000       0.44610000
H       -2.17000000      -0.45290000       0.04780000
H        2.05450000      -0.44530000       0.13720000
H       -1.78420000      -4.13740000      -0.04130000
