21
Properties=species:S:1:pos:R:3 gdb_95288=T pbc="F F F"
C       -0.48840000       1.43780000       0.00790000
C        0.01820000      -0.00240000      -0.01970000
C        0.93150000      -0.36910000      -1.20700000
C        1.59040000      -1.69650000      -0.77990000
C        1.83800000      -1.50660000       0.71130000
O        2.93480000      -0.59350000       0.97200000
C        2.06880000       0.37520000       1.59020000
C        0.80950000      -0.44560000       1.22400000
O       -0.09490000      -0.74340000       2.25490000
H        0.33730000       2.15770000      -0.00060000
H       -1.11360000       1.64790000      -0.86580000
H       -1.09000000       1.61940000       0.90360000
H       -0.85180000      -0.67310000      -0.04080000
H        0.37980000      -0.44570000      -2.14790000
H        1.70060000       0.40030000      -1.34280000
H        0.89800000      -2.53490000      -0.92510000
H        2.51240000      -1.92450000      -1.32230000
H        1.93960000      -2.43400000       1.28730000
H        2.23700000       0.45070000       2.67570000
H        2.17980000       1.37290000       1.14980000
H        0.40400000      -0.97480000       3.04550000
