23
Properties=species:S:1:pos:R:3 gdb_109176=T pbc="F F F"
C        0.09310000       1.52640000       0.28840000
C        0.00150000       0.04450000      -0.11690000
C       -1.40480000      -0.50590000      -0.11070000
C       -1.99390000      -0.94410000      -1.22730000
C       -3.39630000      -1.49240000      -1.29300000
C       -4.20890000      -1.15670000      -0.03700000
O       -5.39460000      -1.93580000       0.05920000
C       -3.37380000      -1.42660000       1.20890000
C       -2.12180000      -0.53960000       1.22380000
H        1.12940000       1.87590000       0.24690000
H       -0.50310000       2.15190000      -0.38390000
H       -0.26970000       1.69070000       1.30780000
H        0.43560000      -0.08390000      -1.11460000
H        0.62320000      -0.54480000       0.57280000
H       -1.43950000      -0.91580000      -2.16360000
H       -3.90680000      -1.10660000      -2.18710000
H       -3.37740000      -2.58650000      -1.40640000
H       -4.46230000      -0.08270000      -0.05960000
H       -5.90500000      -1.80020000      -0.74570000
H       -3.98250000      -1.25790000       2.10260000
H       -3.08730000      -2.48540000       1.20930000
H       -1.42920000      -0.88600000       2.00230000
H       -2.39550000       0.48410000       1.51730000
