18
Properties=species:S:1:pos:R:3 gdb_10618=T pbc="F F F"
C       -0.07620000       1.51770000      -0.10520000
C        0.07010000       0.01540000       0.00660000
C        1.39980000      -0.67020000      -0.12340000
C        0.69020000      -0.67060000       1.22500000
C        1.28920000       0.13670000       2.37370000
O        2.30740000      -0.57230000       3.05310000
C        0.09480000      -1.90340000       1.67050000
C       -0.37620000      -2.92490000       2.10120000
H        0.80370000       2.05040000       0.26410000
H       -0.21090000       1.80260000      -1.15430000
H       -0.94780000       1.87890000       0.45110000
H       -0.76960000      -0.53560000      -0.40760000
H        1.45940000      -1.60550000      -0.66710000
H        2.28880000      -0.05060000      -0.18950000
H        1.75940000       1.04630000       1.99230000
H        0.48470000       0.43840000       3.06250000
H        1.92940000      -1.41760000       3.32340000
H       -0.80780000      -3.82730000       2.45740000
