20
Properties=species:S:1:pos:R:3 gdb_108773=T pbc="F F F"
C       -0.05690000       1.44980000      -0.13160000
N        0.02890000       0.01220000       0.00450000
C        0.58860000      -0.61790000       1.07220000
C        1.17260000       0.03920000       2.11380000
C        1.83830000      -0.64310000       3.21250000
O        2.36800000      -0.04220000       4.13470000
C        1.87520000      -2.17270000       3.15430000
C        0.67890000      -2.75860000       2.40050000
C        0.55970000      -2.12880000       1.00930000
H        0.94090000       1.90300000      -0.11470000
H       -0.52750000       1.68900000      -1.08690000
H       -0.64850000       1.90510000       0.67390000
H       -0.49640000      -0.54940000      -0.64280000
H        1.18540000       1.12190000       2.16090000
H        2.80950000      -2.46110000       2.65090000
H        1.94130000      -2.54640000       4.17920000
H        0.76810000      -3.84640000       2.31060000
H       -0.24070000      -2.55880000       2.96340000
H       -0.36360000      -2.45750000       0.51510000
H        1.38790000      -2.46930000       0.37150000
