20
Properties=species:S:1:pos:R:3 gdb_22666=T pbc="F F F"
C        0.01100000       1.52420000       0.24950000
C       -0.06590000       0.02620000      -0.09610000
C       -1.45970000      -0.52810000      -0.06980000
C       -2.13940000      -1.03500000      -1.10260000
C       -3.51870000      -1.51680000      -0.73470000
C       -3.57830000      -1.21450000       0.75000000
C       -2.27750000      -0.57990000       1.20750000
N       -4.53760000      -1.43040000       1.55500000
O       -5.62910000      -2.02440000       0.89040000
H        1.04520000       1.87860000       0.20490000
H       -0.58260000       2.11770000      -0.45290000
H       -0.36480000       1.72470000       1.25770000
H        0.36890000      -0.14230000      -1.08770000
H        0.55930000      -0.53060000       0.61660000
H       -1.75130000      -1.10730000      -2.11320000
H       -4.32550000      -1.00230000      -1.27430000
H       -3.67680000      -2.58700000      -0.92600000
H       -1.78520000      -1.17470000       1.98890000
H       -2.44560000       0.41280000       1.64390000
H       -6.26670000      -2.12930000       1.60430000
