20
Properties=species:S:1:pos:R:3 gdb_80981=T pbc="F F F"
C       -0.11010000       1.52670000      -0.08800000
C        0.01740000       0.01030000      -0.00520000
C        1.19390000      -0.59610000      -0.81840000
C        2.09110000      -0.40860000       0.42660000
C        0.77060000      -0.59050000       1.24140000
C        0.61740000       0.00740000       2.62070000
N        0.47160000      -2.03820000       1.26920000
C        0.58900000      -2.60890000       0.14380000
O        0.95020000      -2.00590000      -1.01580000
H        0.83880000       2.04520000       0.08010000
H       -0.47630000       1.82520000      -1.07660000
H       -0.82380000       1.89760000       0.65440000
H       -0.95260000      -0.45690000      -0.20120000
H        1.47430000      -0.19080000      -1.79060000
H        2.88790000      -1.13640000       0.59210000
H        2.49040000       0.60470000       0.48650000
H        0.83460000       1.07960000       2.61950000
H       -0.40150000      -0.14410000       2.99200000
H        1.29940000      -0.48400000       3.32200000
H        0.40780000      -3.67140000       0.00280000
