21
Properties=species:S:1:pos:R:3 gdb_120499=T pbc="F F F"
C        0.31570000       1.50750000      -0.28210000
C        0.03710000       0.03410000       0.01480000
O        0.52840000      -0.78220000      -1.05540000
C        1.37200000      -1.82870000      -0.55940000
C        2.71080000      -1.83100000      -1.30190000
C        2.54540000      -2.03230000      -2.80250000
O        3.84290000      -2.06530000      -3.38150000
C        1.47670000      -1.55340000       0.91750000
C        0.72710000      -0.50720000       1.23970000
H        1.39270000       1.69110000      -0.33430000
H       -0.13320000       1.78890000      -1.23890000
H       -0.11260000       2.14530000       0.49850000
H       -1.05520000      -0.10620000       0.09300000
H        0.87290000      -2.79860000      -0.73850000
H        3.23090000      -0.88460000      -1.11840000
H        3.34160000      -2.63550000      -0.90360000
H        2.00140000      -2.97330000      -2.99180000
H        1.93860000      -1.21350000      -3.21290000
H        3.74160000      -2.10740000      -4.33670000
H        2.08530000      -2.15240000       1.58330000
H        0.59620000      -0.07720000       2.22500000
