20
Properties=species:S:1:pos:R:3 gdb_59752=T pbc="F F F"
C        0.98200000      -0.55990000      -0.88120000
N       -0.06960000      -0.15040000       0.04460000
C        0.06350000       1.28130000       0.32120000
C       -1.40290000      -0.52270000      -0.44720000
C       -1.62930000      -2.04210000      -0.44110000
C       -2.08190000      -2.29290000       1.00020000
O       -2.81690000      -1.11210000       1.36590000
C       -2.48240000      -0.07190000       0.56320000
O       -2.98980000       1.00740000       0.67000000
H        1.95370000      -0.28900000      -0.45870000
H        0.98120000      -1.64050000      -1.03650000
H        0.89310000      -0.07140000      -1.87030000
H       -0.05880000       1.90230000      -0.58510000
H       -0.67420000       1.60950000       1.05210000
H        1.06190000       1.46700000       0.72740000
H       -1.62620000      -0.06090000      -1.42410000
H       -2.43670000      -2.29090000      -1.13700000
H       -0.75560000      -2.63320000      -0.71280000
H       -2.75030000      -3.14850000       1.11370000
H       -1.23230000      -2.40260000       1.68140000
