21
Properties=species:S:1:pos:R:3 gdb_67824=T pbc="F F F"
C       -0.02560000       1.52830000       0.03420000
C       -0.00850000       0.01900000      -0.04150000
C        0.89900000      -0.65980000      -1.02010000
C        0.38390000      -1.81230000      -1.45160000
C       -0.91260000      -2.14090000      -0.72570000
C       -0.58600000      -3.09310000       0.45830000
C        0.17650000      -2.18690000       1.45940000
C       -0.39220000      -0.78620000       1.21500000
C       -1.26940000      -0.81490000      -0.01300000
H        0.93410000       1.92160000       0.39010000
H       -0.22330000       1.97230000      -0.94830000
H       -0.80110000       1.88120000       0.72150000
H        1.85890000      -0.24510000      -1.30930000
H        0.87260000      -2.51410000      -2.11900000
H       -1.69720000      -2.53610000      -1.37690000
H       -1.52290000      -3.44350000       0.90740000
H       -0.01210000      -3.97530000       0.15510000
H        0.01610000      -2.49930000       2.49510000
H        1.25480000      -2.22700000       1.27450000
H       -0.68650000      -0.19310000       2.07510000
H       -2.26350000      -0.38490000      -0.05420000
