16
Properties=species:S:1:pos:R:3 gdb_69912=T pbc="F F F"
C       -0.00450000       1.49290000       0.01020000
C        0.05340000      -0.00740000      -0.00290000
N       -0.81260000      -0.85760000       0.84010000
C        0.65410000      -0.89460000       1.03750000
C        1.34450000      -1.94200000       0.14720000
O        0.37720000      -2.16500000      -0.91580000
C        0.52100000      -0.76240000      -1.26770000
C        2.02910000      -1.00080000      -0.90490000
O        3.10810000      -0.76360000      -1.33540000
H        0.89440000       1.92430000      -0.44420000
H       -0.87080000       1.86070000      -0.55120000
H       -0.07820000       1.87700000       1.03270000
H       -1.20300000      -0.26500000       1.57150000
H        1.11470000      -0.53680000       1.95010000
H        1.78360000      -2.84670000       0.56030000
H        0.14790000      -0.49870000      -2.25490000
