17
Properties=species:S:1:pos:R:3 gdb_128267=T pbc="F F F"
C        0.25490000       1.29860000      -0.14070000
N        0.13790000      -0.14110000      -0.00450000
C        0.71160000      -0.79590000       1.04920000
N        0.96220000      -2.09450000       1.10670000
C        1.48400000      -2.25030000       2.36300000
C        1.89120000      -3.61150000       2.84230000
O        2.49680000      -4.36150000       1.80720000
N        1.57920000      -1.15040000       3.07870000
N        1.06710000      -0.20970000       2.21510000
H        1.29620000       1.65250000      -0.16880000
H       -0.24070000       1.60650000      -1.06280000
H       -0.26040000       1.80190000       0.68570000
H        0.16670000      -0.68160000      -0.85490000
H        2.60850000      -3.51400000       3.66190000
H        1.00390000      -4.13260000       3.24050000
H        2.01430000      -4.13730000       1.00150000
H        1.02040000       0.75390000       2.49560000
