18
Properties=species:S:1:pos:R:3 gdb_84347=T pbc="F F F"
C       -0.82180000       1.18650000      -0.09120000
C       -0.01600000      -0.10700000      -0.05630000
C        1.05860000      -0.24610000      -1.17320000
O        1.65570000       0.97930000      -1.58220000
C        2.07170000      -1.17910000      -0.54920000
C        1.93850000      -1.24950000       0.77340000
C        0.76500000      -0.41200000       1.26800000
C        1.25190000       0.78800000       1.95760000
N        1.65670000       1.73800000       2.47870000
H       -0.17820000       2.06290000       0.00840000
H       -1.35510000       1.27320000      -1.04240000
H       -1.56140000       1.21190000       0.71520000
H       -0.69610000      -0.95740000      -0.18040000
H        0.60990000      -0.64740000      -2.08730000
H        2.20200000       1.30420000      -0.85670000
H        2.85220000      -1.65770000      -1.12910000
H        2.58090000      -1.78890000       1.45900000
H        0.13200000      -0.96030000       1.97470000
