20
Properties=species:S:1:pos:R:3 gdb_113157=T pbc="F F F"
C        0.11390000       1.53810000      -0.22020000
C        0.00740000       0.05030000       0.01610000
C        1.24770000      -0.79810000       0.07650000
C        0.40920000      -0.59180000       1.33390000
C        0.99640000       0.17520000       2.45500000
N        2.13030000      -0.70190000       3.06630000
H        2.73300000      -0.97550000       2.28270000
H        2.68300000      -0.24540000       3.79710000
H        1.72300000      -1.56180000       3.44060000
C       -1.24500000      -0.68360000      -0.62890000
O       -1.88920000       0.02320000      -1.41360000
O       -1.37830000      -1.86770000      -0.25550000
H        1.08070000       1.96700000       0.08090000
H       -0.03320000       1.72050000      -1.28640000
H       -0.68530000       2.07740000       0.29840000
H        1.19320000      -1.78330000      -0.37240000
H        2.21350000      -0.29250000       0.01040000
H       -0.25160000      -1.42270000       1.57790000
H        1.49130000       1.10020000       2.15170000
H        0.31400000       0.37730000       3.28450000
