18
Properties=species:S:1:pos:R:3 gdb_56352=T pbc="F F F"
N        0.57120000       1.20210000       0.56610000
C        0.26220000      -0.07440000       0.13760000
N        1.03400000      -0.97220000      -0.33260000
C        2.46120000      -0.69540000      -0.46090000
C        3.21820000      -0.68380000       0.86240000
C        4.69370000      -0.39510000       0.87130000
C        3.73770000       0.59670000       1.48690000
C       -1.15920000      -0.37870000       0.19410000
N       -2.29420000      -0.58700000       0.25990000
H        1.50900000       1.34230000       0.90870000
H       -0.14440000       1.70330000       1.06870000
H        2.87500000      -1.48640000      -1.09450000
H        2.63240000       0.25880000      -0.98670000
H        2.87890000      -1.44660000       1.55720000
H        5.33000000      -0.97600000       1.52920000
H        5.16030000      -0.11990000      -0.06920000
H        3.60040000       1.53190000       0.94860000
H        3.71700000       0.69790000       2.56660000
