15
Properties=species:S:1:pos:R:3 gdb_2400=T pbc="F F F"
O        0.00500000       1.43060000       0.09160000
C        0.02300000       0.03480000       0.03540000
C       -0.51170000      -0.78650000       1.20470000
C       -1.29970000      -0.63990000      -0.06220000
C       -2.65810000      -0.00010000      -0.30740000
C       -2.84310000      -1.17240000      -1.29710000
O       -1.54740000      -1.72460000      -0.95290000
H        0.67740000       1.71340000       0.72070000
H        0.83950000      -0.40920000      -0.53520000
H       -0.03690000      -1.74200000       1.40250000
H       -0.87080000      -0.25080000       2.07850000
H       -3.33720000      -0.00310000       0.54710000
H       -2.62270000       0.99870000      -0.74380000
H       -3.65240000      -1.87390000      -1.06770000
H       -2.89380000      -0.89350000      -2.35560000
