23
Properties=species:S:1:pos:R:3 gdb_118153=T pbc="F F F"
C       -0.02640000       1.48200000      -0.19190000
C        0.00140000      -0.00130000       0.13840000
O       -1.28560000      -0.53400000      -0.10900000
C       -1.40360000      -1.94420000       0.01120000
C       -1.44990000      -2.39440000       1.47600000
C       -2.66110000      -2.36040000      -0.74470000
C       -3.97150000      -1.58290000      -0.47300000
O       -4.11930000      -1.26120000      -1.87080000
C       -2.84460000      -1.85360000      -2.19180000
H        0.95470000       1.93120000      -0.01090000
H       -0.29390000       1.63700000      -1.24090000
H       -0.76440000       1.99840000       0.42830000
H        0.74950000      -0.52270000      -0.48210000
H        0.29480000      -0.14890000       1.18940000
H       -0.53470000      -2.41810000      -0.47950000
H       -2.30870000      -1.94690000       1.98640000
H       -1.53840000      -3.48370000       1.53960000
H       -0.54420000      -2.10370000       2.01500000
H       -2.78310000      -3.44280000      -0.65510000
H       -4.81860000      -2.16760000      -0.09500000
H       -3.84430000      -0.68390000       0.14110000
H       -2.11010000      -1.09970000      -2.49810000
H       -2.93250000      -2.62000000      -2.97140000
