20
Properties=species:S:1:pos:R:3 gdb_19968=T pbc="F F F"
C       -0.30710000       1.50470000       0.01130000
C       -0.00800000       0.01090000       0.01030000
C        1.23570000      -0.42690000      -0.79330000
O        1.95170000      -0.77520000       0.40740000
C        0.77100000      -0.57790000       1.22600000
C        1.03090000       0.25270000       2.44500000
C        0.10660000       0.12920000       3.63540000
C        1.50620000      -0.41830000       3.71080000
H        0.59660000       2.09600000       0.19020000
H       -0.71620000       1.81300000      -0.95690000
H       -1.03900000       1.76610000       0.78220000
H       -0.91520000      -0.55020000      -0.22910000
H        1.08610000      -1.29500000      -1.44950000
H        1.74620000       0.36160000      -1.36090000
H        0.36110000      -1.55110000       1.54110000
H        1.43830000       1.23890000       2.24740000
H       -0.13090000       1.02890000       4.19160000
H       -0.71290000      -0.57930000       3.56920000
H        1.63430000      -1.49540000       3.69260000
H        2.23390000       0.10540000       4.32020000
