18
Properties=species:S:1:pos:R:3 gdb_92967=T pbc="F F F"
C        0.00890000       1.57990000      -0.02480000
C        0.00700000       0.05300000       0.04250000
C        0.79840000      -0.62420000      -1.11640000
N        2.03770000      -1.17450000      -0.53310000
C        1.92510000      -1.05740000       0.72810000
N        0.76520000      -0.45540000       1.20770000
C        0.31740000      -0.32210000       2.51130000
N        1.10220000      -0.94360000       3.47170000
O       -0.67260000       0.32730000       2.78940000
H        1.03320000       1.96250000      -0.08810000
H       -0.53390000       1.91000000      -0.91670000
H       -0.47460000       2.00090000       0.85790000
H       -1.02160000      -0.30950000       0.10990000
H        0.23710000      -1.43910000      -1.58810000
H        1.04740000       0.09400000      -1.90370000
H        2.69060000      -1.37470000       1.42830000
H        1.54630000      -1.81840000       3.23830000
H        0.65460000      -0.94100000       4.37630000
