20
Properties=species:S:1:pos:R:3 gdb_67642=T pbc="F F F"
C       -0.01270000       1.53700000       0.06050000
C       -0.00330000       0.03980000      -0.00460000
C        1.08670000      -0.85750000      -0.53530000
C        0.54430000      -1.77290000      -1.62160000
C       -0.87100000      -2.09620000      -1.11450000
C       -0.76270000      -2.98530000       0.14540000
N       -0.69670000      -1.76540000       1.01890000
C        0.58410000      -1.02770000       0.90080000
C       -1.21150000      -0.91310000      -0.12560000
H        0.97770000       1.92320000       0.32310000
H       -0.29200000       1.97790000      -0.90430000
H       -0.72190000       1.90360000       0.81100000
H        2.08550000      -0.44100000      -0.62420000
H        0.51960000      -1.23730000      -2.57930000
H        1.13400000      -2.68510000      -1.76820000
H       -1.58020000      -2.37730000      -1.89510000
H       -1.67320000      -3.54660000       0.37730000
H        0.10000000      -3.65680000       0.21240000
H        1.25140000      -0.94160000       1.75240000
H       -2.23310000      -0.53720000      -0.05000000
