19
Properties=species:S:1:pos:R:3 gdb_40133=T pbc="F F F"
C       -0.07720000       1.52510000      -0.07330000
O        1.15980000       0.81630000      -0.17080000
C       -0.04580000       0.05550000      -0.01020000
C       -0.22590000      -0.60450000       1.34280000
C        0.31780000      -1.99300000       1.53670000
C        0.90830000      -2.82640000       0.66710000
C        1.16230000      -2.66620000      -0.76130000
C        0.59890000      -1.79310000      -1.60520000
C       -0.43480000      -0.75850000      -1.23740000
H       -0.21440000       2.10800000       0.83750000
H       -0.40920000       2.01830000      -0.98650000
H        0.23140000       0.05270000       2.09420000
H       -1.29990000      -0.61700000       1.58600000
H        0.22290000      -2.34580000       2.56240000
H        1.26020000      -3.77120000       1.07720000
H        1.87820000      -3.37200000      -1.17660000
H        0.90220000      -1.81800000      -2.64790000
H       -1.40270000      -1.24390000      -1.04600000
H       -0.58650000      -0.08230000      -2.08330000
