23
Properties=species:S:1:pos:R:3 gdb_104868=T pbc="F F F"
C        0.84700000      -0.76190000      -1.19610000
C        0.03160000      -0.13280000      -0.06040000
C       -1.48610000      -0.43200000      -0.08390000
C       -2.12740000       0.08130000      -1.38560000
O       -1.89100000       1.47930000      -1.48660000
C       -1.81270000      -1.94670000       0.10990000
C       -2.95700000      -2.02980000       1.15540000
C       -2.96060000      -0.65270000       1.77200000
C       -2.18060000       0.19870000       1.11160000
H        1.91540000      -0.57490000      -1.04910000
H        0.70720000      -1.84720000      -1.24700000
H        0.57480000      -0.34190000      -2.16920000
H        0.42240000      -0.47990000       0.90410000
H        0.16950000       0.95310000      -0.08150000
H       -1.70050000      -0.45430000      -2.24770000
H       -3.20640000      -0.13720000      -1.36210000
H       -2.32160000       1.80240000      -2.28300000
H       -2.07410000      -2.43950000      -0.83170000
H       -0.92540000      -2.45850000       0.49510000
H       -3.92740000      -2.25290000       0.69020000
H       -2.78840000      -2.82470000       1.89150000
H       -3.56710000      -0.40230000       2.63630000
H       -2.05120000       1.24900000       1.34610000
