19
Properties=species:S:1:pos:R:3 gdb_17263=T pbc="F F F"
C        0.01790000       1.52860000       0.02910000
C        0.00780000       0.02190000       0.02370000
C        0.52360000      -0.97250000      -1.05070000
N       -0.03120000      -1.93540000       0.01830000
C        0.64690000      -0.98080000       1.02140000
C       -1.18200000      -0.94720000       0.09060000
C       -2.39750000      -1.07590000       0.93060000
C       -2.48860000      -1.06980000      -0.60030000
H        1.04070000       1.91570000      -0.02940000
H       -0.54100000       1.92870000      -0.82410000
H       -0.43710000       1.92160000       0.94500000
H       -0.01180000      -1.02410000      -2.00190000
H        1.60550000      -1.06010000      -1.18870000
H        1.73740000      -1.06880000       1.02960000
H        0.22800000      -1.04010000       2.02900000
H       -2.57110000      -2.02160000       1.43390000
H       -2.76540000      -0.20540000       1.46510000
H       -2.91680000      -0.19520000      -1.08060000
H       -2.72100000      -2.01160000      -1.08700000
