23
Properties=species:S:1:pos:R:3 gdb_83374=T pbc="F F F"
C       -0.07370000       1.66760000       0.06500000
C        0.05610000       0.15100000       0.05350000
C        1.13060000      -0.58520000      -0.78570000
C        2.44300000       0.03390000      -0.19700000
C        2.11480000       0.04270000       1.35430000
C        0.75670000      -0.63790000       1.23450000
C       -0.17640000      -1.53680000       2.06430000
C       -0.30740000      -2.44850000       0.78670000
C        0.98490000      -1.77300000       0.19910000
H        0.87200000       2.18400000       0.24840000
H       -0.46080000       2.02560000      -0.89610000
H       -0.77930000       1.98920000       0.83960000
H       -0.93090000      -0.27330000      -0.13750000
H        1.08630000      -0.65800000      -1.87590000
H        3.31720000      -0.58340000      -0.42380000
H        2.63570000       1.03460000      -0.59190000
H        2.82950000      -0.55310000       1.92920000
H        2.10160000       1.05210000       1.77630000
H        0.34680000      -2.05800000       2.87270000
H       -1.08850000      -1.08910000       2.47020000
H       -0.19200000      -3.51910000       0.96650000
H       -1.23060000      -2.30170000       0.22390000
H        1.86420000      -2.41430000       0.31180000
