12
Properties=species:S:1:pos:R:3 gdb_131595=T pbc="F F F"
O        0.00340000       1.39740000       0.00870000
C       -0.01090000      -0.00150000       0.00280000
C       -1.45590000      -0.47450000       0.01340000
O       -2.41200000       0.25300000       0.02470000
C       -1.63710000      -1.96270000       0.00790000
N       -0.66960000      -2.83800000      -0.00500000
O       -1.26950000      -4.03220000      -0.00530000
N       -2.67610000      -3.82480000       0.00830000
N       -2.87310000      -2.59270000       0.01600000
H        0.92010000       1.68760000       0.00170000
H        0.47570000      -0.44050000      -0.88500000
H        0.49110000      -0.44800000       0.87810000
