19
Properties=species:S:1:pos:R:3 gdb_92275=T pbc="F F F"
C        0.09270000       1.55510000      -0.03680000
C        0.01060000       0.03660000       0.05750000
O        0.65280000      -0.53850000      -1.10020000
C        1.27880000      -1.73670000      -0.68470000
C        2.68130000      -2.08400000      -1.22540000
C        3.33840000      -2.66730000       0.01840000
C        2.67060000      -2.36590000       1.14850000
C        1.50880000      -1.56440000       0.79880000
C        0.74710000      -0.56700000       1.24470000
H        1.13630000       1.88170000      -0.01630000
H       -0.36180000       1.89790000      -0.97070000
H       -0.44090000       2.02220000       0.79730000
H       -1.05360000      -0.26330000       0.05820000
H        0.61140000      -2.59830000      -0.86890000
H        2.67320000      -2.77150000      -2.07600000
H        3.20140000      -1.17000000      -1.54360000
H        4.27660000      -3.21010000      -0.01970000
H        2.98720000      -2.61240000       2.15430000
H        0.68580000      -0.15780000       2.24480000
