23
Properties=species:S:1:pos:R:3 gdb_104314=T pbc="F F F"
C        0.09920000       1.36130000      -0.03960000
O       -0.02360000      -0.04200000      -0.00330000
C       -1.34910000      -0.57440000       0.04450000
C       -2.08320000      -0.13860000       1.32140000
C       -2.17440000      -0.24170000      -1.23540000
C       -3.05750000      -1.48030000      -1.50140000
C       -2.26920000      -2.64880000      -0.92590000
C       -0.80460000      -2.73810000      -1.27330000
C       -1.22850000      -2.09380000       0.02030000
H        1.16240000       1.57850000      -0.17340000
H       -0.45300000       1.81140000      -0.87770000
H       -0.23430000       1.84390000       0.89030000
H       -2.26540000       0.93980000       1.33980000
H       -3.05430000      -0.63870000       1.38730000
H       -1.49920000      -0.40610000       2.20750000
H       -2.76610000       0.67150000      -1.13070000
H       -1.47690000      -0.08060000      -2.06280000
H       -4.01320000      -1.39000000      -0.97140000
H       -3.29400000      -1.59800000      -2.56490000
H       -2.79880000      -3.56700000      -0.69600000
H       -0.33950000      -3.71510000      -1.20070000
H       -0.39700000      -2.11550000      -2.06220000
H       -0.98290000      -2.58830000       0.95380000
