15
Properties=species:S:1:pos:R:3 gdb_29096=T pbc="F F F"
N        0.15280000       1.40270000       0.37790000
C       -0.02200000       0.04580000       0.03960000
C       -1.18060000      -0.61630000      -0.10580000
N       -1.17650000      -1.98660000      -0.34800000
C       -0.04240000      -2.74610000      -0.53930000
N       -0.10980000      -3.99430000      -0.79420000
C        1.27280000      -2.00680000      -0.39470000
O        2.33920000      -2.57740000      -0.51150000
N        1.17290000      -0.66920000      -0.09780000
H        0.50800000       1.95580000      -0.39800000
H       -0.71170000       1.81950000       0.69870000
H       -2.14400000      -0.13270000      -0.05130000
H       -2.04910000      -2.48580000      -0.42650000
H        0.84400000      -4.34610000      -0.88660000
H        2.04040000      -0.19180000       0.10650000
