17
Properties=species:S:1:pos:R:3 gdb_94413=T pbc="F F F"
C       -0.32460000       1.40340000      -0.04130000
C        0.16610000      -0.02580000      -0.13060000
O        1.45540000      -0.14850000      -0.77980000
C        2.05230000      -0.73880000       0.38790000
C        0.73210000      -0.65740000       1.17080000
O        0.69230000       0.08990000       2.39880000
C        0.04330000      -0.96530000       3.14610000
C        0.07170000      -1.83550000       1.88290000
O       -0.26750000      -2.93670000       1.57630000
H        0.37260000       2.02310000       0.52710000
H       -0.42560000       1.81580000      -1.04970000
H       -1.30300000       1.44400000       0.44810000
H       -0.57210000      -0.67180000      -0.62470000
H        2.42620000      -1.75280000       0.20160000
H        2.84670000      -0.11920000       0.82070000
H        0.64790000      -1.32590000       3.98660000
H       -0.95520000      -0.68550000       3.50280000
