16
Properties=species:S:1:pos:R:3 gdb_49256=T pbc="F F F"
N        0.15550000       1.30330000      -0.01430000
C        0.07820000       0.04590000      -0.18820000
C       -1.20540000      -0.71490000       0.05420000
C       -1.35220000      -1.90620000      -0.90560000
N       -0.16170000      -2.74950000      -0.97840000
C        0.94980000      -2.13940000      -0.81950000
N        1.12700000      -0.79470000      -0.55990000
C        2.21660000      -2.91830000      -0.96040000
O        3.30760000      -2.40780000      -0.87110000
H        1.10140000       1.65140000      -0.18880000
H       -1.17870000      -1.08840000       1.08630000
H       -2.04510000      -0.02290000      -0.02140000
H       -2.20320000      -2.52810000      -0.61450000
H       -1.56450000      -1.54700000      -1.92400000
H        2.08490000      -0.46810000      -0.54540000
H        2.05500000      -3.99270000      -1.16270000
