20
Properties=species:S:1:pos:R:3 gdb_86817=T pbc="F F F"
C       -0.18390000       1.56350000      -0.10930000
C       -0.10000000       0.04240000      -0.14570000
C        1.16940000      -0.52710000      -0.83700000
N        1.77920000      -0.73010000       0.49850000
H        3.10690000       0.09860000       1.64120000
C        2.60350000      -1.89550000       0.75600000
C        3.52060000      -1.67810000       1.96980000
O        3.67870000      -0.38110000       2.27860000
O        4.06250000      -2.56920000       2.56300000
C        0.44860000      -0.61660000       1.14830000
H        0.75420000       2.00080000       0.24870000
H       -0.38570000       1.97000000      -1.10590000
H       -0.98640000       1.89730000       0.55680000
H       -1.03830000      -0.38390000      -0.50540000
H        0.97570000      -1.47100000      -1.36580000
H        1.73420000       0.14200000      -1.49500000
H        2.03110000      -2.82140000       0.91440000
H        3.25770000      -2.06260000      -0.10840000
H        0.43840000      -0.02220000       2.06790000
H       -0.00300000      -1.59830000       1.35320000
