17
Properties=species:S:1:pos:R:3 gdb_99366=T pbc="F F F"
O        0.34370000       0.83470000      -0.82640000
C        0.09730000      -0.11300000       0.16700000
C       -1.26550000      -0.77050000      -0.06390000
O       -1.97610000      -0.40200000      -0.98850000
N       -1.63050000      -1.75200000       0.79800000
C       -2.92090000      -2.41140000       0.70490000
C       -2.97700000      -3.41200000      -0.47370000
C       -4.25540000      -4.11410000      -0.52310000
N       -5.27320000      -4.66090000      -0.53290000
H       -0.46270000       0.84020000      -1.36910000
H        0.87610000      -0.89260000       0.17110000
H        0.09970000       0.34560000       1.16980000
H       -0.99180000      -2.02860000       1.52580000
H       -3.11390000      -2.92720000       1.64780000
H       -3.69730000      -1.65520000       0.56410000
H       -2.82530000      -2.86200000      -1.40700000
H       -2.16930000      -4.14630000      -0.38360000
