18
Properties=species:S:1:pos:R:3 gdb_124810=T pbc="F F F"
C        0.02310000       1.44100000      -0.26460000
C        0.03590000      -0.03000000       0.18160000
O        0.57610000      -0.15170000       1.48320000
C       -1.34250000      -0.63650000       0.09290000
N       -2.02510000      -0.80990000       1.19720000
O       -3.24570000      -1.34950000       0.82180000
C       -3.25130000      -1.48550000      -0.51380000
C       -2.08340000      -1.05660000      -1.05920000
C       -1.66770000      -1.04460000      -2.49630000
H        1.03170000       1.85210000      -0.17390000
H       -0.30520000       1.54710000      -1.30380000
H       -0.65020000       2.02100000       0.37370000
H        0.69920000      -0.59130000      -0.49180000
H       -0.16390000      -0.21790000       2.09950000
H       -4.14980000      -1.90740000      -0.93820000
H       -1.52720000      -0.02510000      -2.87200000
H       -0.72120000      -1.57630000      -2.64350000
H       -2.42090000      -1.52700000      -3.12450000
