18
Properties=species:S:1:pos:R:3 gdb_114984=T pbc="F F F"
O       -0.01340000       1.41420000       0.01110000
C        0.03000000       0.00640000       0.04210000
C       -1.36370000      -0.60180000      -0.05750000
C       -1.39170000      -2.12680000      -0.04810000
C       -2.80050000      -2.60040000       0.17060000
C       -3.70490000      -1.80860000       0.75220000
C       -3.35440000      -0.48090000       1.28590000
N       -4.09570000       0.27750000       1.98700000
O       -2.07860000      -0.05800000       1.06790000
H       -0.65240000       1.67900000       0.68430000
H        0.63180000      -0.31840000      -0.81350000
H        0.51350000      -0.36900000       0.95910000
H       -1.84640000      -0.23420000      -0.97390000
H       -1.00150000      -2.50400000      -1.00020000
H       -0.73240000      -2.52280000       0.73810000
H       -3.06800000      -3.60280000      -0.15120000
H       -4.72910000      -2.13120000       0.90710000
H       -5.00240000      -0.16360000       2.13420000
