19
Properties=species:S:1:pos:R:3 gdb_120773=T pbc="F F F"
C       -0.33300000       1.30520000      -0.37210000
O       -0.18390000      -0.09280000      -0.31770000
C        0.84580000      -0.56350000      -1.16330000
C        0.88810000      -2.06240000      -1.02280000
O        0.16120000      -2.85370000      -1.97470000
C        1.57830000      -2.97360000      -1.95240000
C        2.33800000      -2.56420000      -3.17910000
C        1.71700000      -2.62370000      -4.51050000
O        1.95810000      -1.37280000      -3.85950000
H        0.58470000       1.82740000      -0.05590000
H       -0.58930000       1.65060000      -1.38590000
H       -1.14410000       1.57410000       0.30900000
H        0.67210000      -0.28990000      -2.21040000
H        1.81790000      -0.13520000      -0.85900000
H        0.76540000      -2.39900000       0.00790000
H        1.94730000      -3.91650000      -1.53900000
H        3.41600000      -2.71570000      -3.10150000
H        2.33110000      -2.81840000      -5.38780000
H        0.66990000      -2.90840000      -4.57960000
