16
Properties=species:S:1:pos:R:3 gdb_51292=T pbc="F F F"
O       -0.41460000       0.09500000      -0.06210000
C       -0.08830000       1.24560000       0.04310000
N        1.20610000       1.73710000       0.07420000
C        2.39960000       1.03590000       0.02660000
N        2.55570000      -0.22560000      -0.01090000
C        4.00400000      -0.47200000      -0.01700000
C        4.65470000       0.91270000      -0.09290000
C        4.29630000       1.77650000      -1.23920000
N        3.55380000       1.89710000       0.04930000
H       -0.80980000       2.08360000       0.12570000
H        1.31760000       2.73500000       0.17380000
H        4.29110000      -0.99230000       0.90470000
H        4.27680000      -1.12640000      -0.85280000
H        5.55500000       1.11970000       0.47540000
H        4.90740000       2.63980000      -1.48190000
H        3.76460000       1.33020000      -2.07560000
