19
Properties=species:S:1:pos:R:3 gdb_87927=T pbc="F F F"
C        0.04270000       1.51020000      -0.15470000
C        0.01120000       0.02380000       0.09660000
O        1.25890000      -0.68590000       0.03400000
C        0.56250000      -0.62650000       1.29020000
C        1.28240000       0.08520000       2.43600000
C        1.91290000      -1.06390000       3.24210000
C        0.99330000      -2.27070000       3.01490000
O        0.99820000      -3.29130000       3.65070000
C        0.05810000      -1.95000000       1.84010000
H        0.84990000       1.99640000       0.39670000
H        0.18900000       1.71020000      -1.22120000
H       -0.90810000       1.96590000       0.14280000
H       -0.80410000      -0.49940000      -0.40940000
H        2.01410000       0.80350000       2.06500000
H        0.55410000       0.62790000       3.05080000
H        2.89700000      -1.32990000       2.83530000
H        2.04600000      -0.86790000       4.30800000
H       -0.96220000      -1.86090000       2.23490000
H        0.05740000      -2.74950000       1.09580000
