21
Properties=species:S:1:pos:R:3 gdb_114893=T pbc="F F F"
C       -0.39260000       1.24990000       0.05110000
C        0.06330000      -0.20800000      -0.07090000
C        0.85170000      -0.66360000       1.14030000
O        0.10770000      -0.59980000       2.39150000
C        0.55150000      -1.92240000       2.77590000
C       -0.58180000      -2.92780000       2.91220000
C       -0.93550000      -3.21790000       1.44580000
O        0.28730000      -3.08680000       0.71200000
C        1.13880000      -2.16850000       1.36820000
H        0.46370000       1.92900000       0.12890000
H       -0.98200000       1.55260000      -0.81940000
H       -1.00820000       1.38540000       0.94490000
H       -0.80000000      -0.86480000      -0.21440000
H        0.70100000      -0.33670000      -0.95500000
H        1.77390000      -0.06830000       1.23420000
H        1.23710000      -1.89060000       3.62860000
H       -0.21160000      -3.82870000       3.41300000
H       -1.42240000      -2.52800000       3.48430000
H       -1.31450000      -4.22900000       1.27540000
H       -1.68300000      -2.50100000       1.08190000
H        2.17020000      -2.50240000       1.24080000
