19
Properties=species:S:1:pos:R:3 gdb_16903=T pbc="F F F"
C        0.04280000       1.53190000       0.06800000
C        0.01590000       0.01240000       0.00330000
C        0.68720000      -0.54360000      -1.26290000
C        0.94810000      -2.03890000      -1.14860000
N        2.16820000      -2.42450000      -0.41000000
C        0.85330000      -2.69520000       0.18420000
C        0.47350000      -1.85170000       1.38380000
O        0.67020000      -0.46970000       1.17150000
H        1.07680000       1.88830000       0.10290000
H       -0.44440000       1.96460000      -0.81130000
H       -0.47260000       1.88750000       0.96420000
H       -1.03340000      -0.33490000       0.02090000
H        0.04450000      -0.33990000      -2.12680000
H        1.63850000      -0.02600000      -1.42870000
H        0.68950000      -2.63830000      -2.01820000
H        2.55450000      -3.28040000      -0.79960000
H        0.50610000      -3.72620000       0.22700000
H       -0.58390000      -2.05490000       1.63260000
H        1.08370000      -2.11790000       2.25330000
