21
Properties=species:S:1:pos:R:3 gdb_41274=T pbc="F F F"
C        0.02400000       1.55500000      -0.11180000
C        1.59430000       1.57750000       0.01710000
C        1.55700000       0.15920000       0.64910000
C        1.67030000      -0.37110000       2.07220000
C        0.88610000      -1.57550000       1.46770000
C       -0.51430000      -0.93310000       1.19580000
C        0.06140000       0.03640000       0.15890000
C        0.55520000      -0.93160000      -0.96330000
C        1.62770000      -1.28600000       0.06900000
H       -0.45560000       2.11180000       0.69930000
H       -0.40570000       1.88680000      -1.06140000
H        2.11390000       1.62950000      -0.94370000
H        2.00410000       2.35780000       0.66300000
H        2.70050000      -0.63480000       2.33470000
H        1.20690000       0.17530000       2.90190000
H        0.92640000      -2.56380000       1.92690000
H       -1.26160000      -1.62750000       0.79990000
H       -0.92040000      -0.45930000       2.09440000
H       -0.13870000      -1.70230000      -1.31470000
H        0.97730000      -0.40410000      -1.82320000
H        2.53820000      -1.85600000      -0.13180000
