14
Properties=species:S:1:pos:R:3 gdb_7624=T pbc="F F F"
N        0.49110000      -0.08990000       0.84140000
C       -0.21020000       0.58230000      -0.10310000
O        0.02600000       1.71250000      -0.48180000
C       -1.36390000      -0.19940000      -0.71740000
C       -1.12310000      -0.77630000      -2.13080000
C       -1.32080000      -2.11310000      -1.44920000
N       -1.32490000      -3.30800000      -1.81740000
O       -1.52550000      -1.55880000      -0.18930000
H        1.25380000       0.37460000       1.30570000
H        0.20600000      -1.01090000       1.12820000
H       -2.28610000       0.37310000      -0.59900000
H       -1.87440000      -0.52820000      -2.88090000
H       -0.12710000      -0.60840000      -2.54230000
H       -1.51220000      -3.94340000      -1.04020000
