20
Properties=species:S:1:pos:R:3 gdb_10355=T pbc="F F F"
C        0.63850000      -0.00920000      -1.29210000
C       -0.06380000       0.06300000       0.06350000
O       -1.38240000      -0.50830000      -0.01020000
C        0.65460000      -0.66840000       1.21780000
C        0.67330000      -2.20180000       1.06270000
O       -0.58540000      -2.80360000       1.27050000
C        2.07910000      -0.15010000       1.41970000
O        2.05740000       1.27110000       1.45910000
H        0.78910000      -1.04060000      -1.62320000
H        0.03820000       0.50370000      -2.05320000
H        1.60590000       0.49840000      -1.24980000
H       -0.14770000       1.11880000       0.34850000
H       -1.84050000      -0.11920000      -0.76120000
H        0.08040000      -0.45120000       2.12680000
H        1.09380000      -2.47250000       0.07850000
H        1.34920000      -2.62850000       1.81460000
H       -1.21190000      -2.28850000       0.74440000
H        2.47620000      -0.56530000       2.35810000
H        2.72860000      -0.51020000       0.60520000
H        2.95640000       1.58250000       1.59810000
