19
Properties=species:S:1:pos:R:3 gdb_114756=T pbc="F F F"
O        0.04330000       1.20390000      -0.56800000
C       -0.06900000      -0.21700000      -0.56010000
C       -1.39480000      -0.55370000       0.12430000
C       -2.61930000      -0.05230000      -0.68890000
C       -3.09290000      -1.26940000      -1.46010000
O       -2.03750000      -1.95140000      -2.15490000
C       -2.48400000      -2.47950000      -0.89960000
C       -1.62640000      -2.09020000       0.28580000
O       -0.45650000      -2.89020000       0.33390000
H        0.80280000       1.43630000      -1.10940000
H       -0.05790000      -0.62980000      -1.57480000
H        0.76260000      -0.67200000      -0.00360000
H       -1.37290000      -0.06860000       1.10580000
H       -3.42560000       0.28690000      -0.02820000
H       -2.35110000       0.78970000      -1.33260000
H       -4.05850000      -1.27870000      -1.95990000
H       -2.93890000      -3.46560000      -0.94090000
H       -2.23890000      -2.26440000       1.18670000
H       -0.00790000      -2.71740000       1.16730000
