18
Properties=species:S:1:pos:R:3 gdb_79394=T pbc="F F F"
C       -0.00470000       1.47480000      -0.09230000
C        0.00600000      -0.02590000      -0.02840000
N        0.64040000      -0.85200000      -1.11350000
C        0.10410000      -1.86040000      -0.14580000
C        0.53440000      -1.00280000       1.08390000
C       -0.84640000      -1.17460000       1.74840000
O       -1.34290000      -0.21170000       2.65120000
C       -1.17630000      -1.06720000       0.24730000
O       -2.38540000      -1.16840000      -0.40510000
H        1.01340000       1.86250000      -0.19840000
H       -0.58800000       1.81590000      -0.95520000
H       -0.45170000       1.92550000       0.80040000
H        0.04940000      -0.83260000      -1.95010000
H        0.21790000      -2.93750000      -0.26500000
H        1.52690000      -0.98910000       1.52740000
H       -1.03880000      -2.15210000       2.20180000
H       -0.93560000       0.63680000       2.45330000
H       -3.02610000      -0.62480000       0.06790000
