21
Properties=species:S:1:pos:R:3 gdb_117374=T pbc="F F F"
C       -0.12000000       1.48650000      -0.36140000
C       -0.13430000      -0.01630000      -0.15830000
O        0.66500000      -0.60560000      -1.20330000
C        0.77940000      -1.94900000      -1.16910000
O        0.24430000      -2.64480000      -0.34280000
C        1.69050000      -2.44110000      -2.27970000
C        1.51790000      -3.91380000      -2.56840000
C        0.53820000      -4.37150000      -3.61770000
C        2.02310000      -4.49010000      -3.86510000
H        0.89950000       1.87860000      -0.30590000
H       -0.53780000       1.75300000      -1.33630000
H       -0.71890000       1.97220000       0.41480000
H        0.28230000      -0.30370000       0.81240000
H       -1.14700000      -0.42820000      -0.21210000
H        1.51950000      -1.83300000      -3.17400000
H        2.72050000      -2.22310000      -1.96330000
H        1.59940000      -4.54320000      -1.68890000
H       -0.02980000      -5.27580000      -3.43140000
H       -0.00670000      -3.61230000      -4.17000000
H        2.47210000      -3.81190000      -4.58390000
H        2.47300000      -5.47660000      -3.84920000
