17
Properties=species:S:1:pos:R:3 gdb_82458=T pbc="F F F"
O        0.21200000       1.41060000       0.04080000
C        0.04770000       0.01790000       0.08060000
C        0.21210000      -0.77700000       1.42530000
C       -0.83130000      -0.14840000       2.39480000
C       -1.85910000      -0.74110000       1.44000000
O       -3.23710000      -0.79400000       1.54260000
C       -0.88410000      -1.78060000       0.90600000
C       -1.32380000      -0.62320000       0.00870000
O       -2.19000000      -0.61530000      -1.05520000
H       -0.52040000       1.81690000       0.51460000
H        0.71610000      -0.39500000      -0.68050000
H        1.19900000      -1.05880000       1.77980000
H       -0.83190000      -0.65810000       3.36350000
H       -0.79890000       0.93680000       2.55320000
H       -3.48440000      -1.47100000       2.18140000
H       -0.92280000      -2.85180000       0.78070000
H       -3.08570000      -0.59760000      -0.69090000
