20
Properties=species:S:1:pos:R:3 gdb_118816=T pbc="F F F"
C        0.07320000       1.80080000       0.17110000
C       -0.16040000       0.30510000       0.06010000
C       -1.60980000      -0.09660000      -0.20730000
C       -2.01110000      -0.00890000      -1.67980000
O       -1.38250000      -1.09180000      -2.36130000
N        0.90290000      -0.45910000      -0.58330000
C        0.66980000      -0.67560000       0.85860000
C        1.76550000      -0.24820000       1.76970000
O        1.89740000      -0.66100000       2.89600000
H        1.13820000       2.03310000       0.21610000
H       -0.33890000       2.31890000      -0.70220000
H       -0.41530000       2.20930000       1.06220000
H       -1.78750000      -1.12820000       0.11510000
H       -2.27740000       0.54180000       0.38240000
H       -3.10580000      -0.07990000      -1.76670000
H       -1.70750000       0.95700000      -2.10900000
H       -1.45750000      -0.94700000      -3.30870000
H        0.50470000      -1.21510000      -1.13480000
H        0.15860000      -1.57590000       1.19200000
H        2.47420000       0.48520000       1.32710000
