19
Properties=species:S:1:pos:R:3 gdb_15172=T pbc="F F F"
C       -0.03070000       1.56150000       0.03060000
C       -0.02160000       0.03230000      -0.00650000
C        0.74620000      -0.51990000      -1.22570000
C        0.76500000      -1.97730000      -1.27950000
C        0.75830000      -3.18330000      -1.29820000
C        0.78540000      -4.61910000      -1.32440000
C       -0.04250000      -5.36640000      -2.31860000
N        1.41610000      -5.33260000      -2.46470000
H        0.98720000       1.96440000       0.07840000
H       -0.50980000       1.97850000      -0.86240000
H       -0.57610000       1.93170000       0.90380000
H        0.43440000      -0.36480000       0.90720000
H       -1.04740000      -0.35180000      -0.03110000
H        0.29460000      -0.12470000      -2.14600000
H        1.77560000      -0.13630000      -1.20780000
H        0.98150000      -5.09890000      -0.36870000
H       -0.45410000      -6.33410000      -2.04540000
H       -0.65510000      -4.77940000      -2.99630000
H        1.67070000      -4.64690000      -3.17190000
