20
Properties=species:S:1:pos:R:3 gdb_117795=T pbc="F F F"
C        0.08720000       1.37480000       0.04370000
O       -0.02570000      -0.03920000       0.02610000
C       -1.33660000      -0.58630000       0.01090000
C       -2.12470000      -0.18930000      -1.25100000
C       -1.15360000      -2.11340000       0.07110000
C       -0.35800000      -2.60580000       1.27520000
O       -0.31290000      -4.02220000       1.17730000
C       -2.08830000      -0.12340000       1.21070000
N       -2.66800000       0.25590000       2.13610000
H        1.14960000       1.59100000       0.17300000
H       -0.25230000       1.83080000      -0.89490000
H       -0.47120000       1.81660000       0.87920000
H       -1.54170000      -0.46850000      -2.13270000
H       -3.08370000      -0.71250000      -1.27820000
H       -2.32670000       0.88330000      -1.28240000
H       -2.13810000      -2.59140000       0.07470000
H       -0.64070000      -2.41880000      -0.84640000
H        0.64710000      -2.16500000       1.25870000
H       -0.85050000      -2.28440000       2.20570000
H        0.20270000      -4.35580000       1.91700000
