14
Properties=species:S:1:pos:R:3 gdb_5274=T pbc="F F F"
C       -0.11380000       1.50120000       0.01080000
C        0.04640000      -0.00730000       0.00370000
O        1.13420000      -0.55180000      -0.00740000
C       -1.17860000      -0.81610000       0.01080000
C       -1.36780000      -2.17120000       0.00760000
C       -2.77490000      -2.38490000       0.01850000
C       -3.34200000      -1.14450000       0.02780000
O       -2.39430000      -0.18340000       0.02340000
H        0.87470000       1.96000000       0.00490000
H       -0.68700000       1.83040000      -0.86200000
H       -0.67350000       1.82360000       0.89480000
H       -0.58140000      -2.90860000      -0.00170000
H       -3.29760000      -3.32850000       0.01950000
H       -4.36350000      -0.79840000       0.03760000
