19
Properties=species:S:1:pos:R:3 gdb_106844=T pbc="F F F"
C       -0.01260000       1.51210000       0.18710000
C       -0.02210000       0.01070000      -0.13520000
C       -1.39270000      -0.57820000      -0.03280000
C       -2.07410000      -1.08500000       1.19490000
C       -1.93090000      -2.01910000      -0.00850000
C       -2.88180000      -1.52150000      -1.09910000
O       -2.37170000      -0.16830000      -0.99420000
C       -1.27570000      -3.27620000       0.03070000
C       -0.72520000      -4.34710000       0.05120000
H        0.99370000       1.92610000       0.07640000
H       -0.68080000       2.05540000      -0.48700000
H       -0.34600000       1.69640000       1.21320000
H        0.35880000      -0.15620000      -1.14940000
H        0.63920000      -0.53230000       0.54940000
H       -1.42600000      -1.34290000       2.02580000
H       -3.05730000      -0.70880000       1.46550000
H       -2.66110000      -1.94440000      -2.08440000
H       -3.95690000      -1.58170000      -0.89400000
H       -0.23940000      -5.29080000       0.07160000
