15
Properties=species:S:1:pos:R:3 gdb_132597=T pbc="F F F"
N        0.02770000       1.41830000       0.08700000
C       -0.01430000       0.02110000       0.02450000
C       -1.18850000      -0.71770000       0.05920000
C       -1.09780000      -2.10530000       0.01350000
F       -2.21960000      -2.83680000       0.04330000
C        0.13310000      -2.72390000      -0.07550000
N        1.27150000      -2.01550000      -0.08690000
C        1.20820000      -0.69430000      -0.03050000
N        2.40410000       0.03570000      -0.08680000
H        0.74950000       1.80890000      -0.50830000
H       -0.86260000       1.86330000      -0.09180000
H       -2.16090000      -0.23890000       0.10270000
H        0.20720000      -3.80540000      -0.12610000
H        3.20150000      -0.58410000      -0.01380000
H        2.45210000       0.77220000       0.60860000
