15
Properties=species:S:1:pos:R:3 gdb_72374=T pbc="F F F"
O        0.01550000       1.32940000      -0.20630000
C        0.05850000      -0.06630000      -0.07550000
C        0.82120000      -0.80470000      -1.19920000
C       -0.10170000      -1.93870000      -1.57460000
C       -1.25120000      -1.93460000      -0.89510000
C       -1.29230000      -0.80880000       0.08390000
O       -0.88850000      -1.22220000       1.46300000
C        0.29380000      -0.55410000       1.36490000
O        1.13350000      -0.39850000       2.19590000
H        0.71700000       1.69850000       0.34310000
H        0.97680000      -0.10750000      -2.03140000
H        1.81160000      -1.15390000      -0.88520000
H        0.16850000      -2.67030000      -2.32850000
H       -2.05650000      -2.65010000      -1.00570000
H       -2.20390000      -0.21510000       0.14380000
