17
Properties=species:S:1:pos:R:3 gdb_35806=T pbc="F F F"
C       -0.05000000      -1.23460000      -0.06720000
C       -0.00710000      -0.03550000      -0.00470000
C        0.02630000       1.41260000       0.08050000
C       -0.47940000       1.99430000       1.42460000
O        0.04160000       3.31830000       1.46940000
C        1.32730000       3.30430000       0.88670000
C        2.44880000       2.62670000       1.70400000
O        2.39890000       1.44840000       0.86600000
C        1.42780000       2.04670000      -0.01240000
H       -0.07830000      -2.29450000      -0.12330000
H       -0.57460000       1.84800000      -0.72900000
H       -1.56710000       2.05700000       1.48900000
H       -0.10710000       1.38310000       2.25750000
H        1.53240000       4.29510000       0.48090000
H        3.42580000       3.12190000       1.64950000
H        2.20220000       2.41230000       2.74990000
H        1.79790000       2.13530000      -1.03750000
