21
Properties=species:S:1:pos:R:3 gdb_102980=T pbc="F F F"
C       -0.24500000       1.08100000      -1.70630000
C       -0.03210000      -0.16090000      -0.86760000
C        1.31600000      -0.63240000      -0.38270000
C        2.62200000       0.06660000      -0.69820000
C        0.30160000      -0.08170000       0.62580000
C        0.50120000       1.27190000       1.30210000
O       -0.73020000       1.88150000       1.64570000
C       -0.35440000      -1.02450000       1.49430000
C       -0.92040000      -1.76810000       2.25480000
H        0.50330000       1.85480000      -1.52330000
H       -0.20010000       0.83030000      -2.77170000
H       -1.22620000       1.52000000      -1.50170000
H       -0.72610000      -0.96130000      -1.10890000
H        1.41990000      -1.71290000      -0.33100000
H        2.52230000       1.15050000      -0.78310000
H        3.37120000      -0.13800000       0.07380000
H        3.02190000      -0.29820000      -1.65080000
H        1.14110000       1.13730000       2.18770000
H        1.00630000       1.97300000       0.63610000
H       -1.22120000       1.24170000       2.17510000
H       -1.40780000      -2.44500000       2.91170000
