16
Properties=species:S:1:pos:R:3 gdb_6873=T pbc="F F F"
C       -0.08580000       1.58700000       0.06860000
C       -0.02270000       0.08140000      -0.03360000
O       -1.14010000      -0.58400000       0.47810000
C        0.57430000      -0.61090000      -1.20160000
N        1.05450000       0.09270000      -2.34710000
C        1.31880000      -0.66570000       0.17330000
C        2.53530000       0.06510000       0.31600000
N        3.51160000       0.68600000       0.38620000
H        0.82860000       2.07010000      -0.28170000
H       -0.93160000       1.96300000      -0.51380000
H       -0.22430000       1.88710000       1.11370000
H       -1.23460000      -0.34080000       1.40690000
H        0.09350000      -1.55160000      -1.44940000
H        1.52940000       0.95230000      -2.09250000
H        1.73140000      -0.47400000      -2.84880000
H        1.25390000      -1.59870000       0.72180000
