21
Properties=species:S:1:pos:R:3 gdb_56206=T pbc="F F F"
N       -0.05820000       1.35750000      -0.10550000
C       -0.06590000       0.02620000       0.30910000
O        0.66790000      -0.38770000       1.18760000
N       -0.95610000      -0.76220000      -0.38360000
C       -0.98950000      -2.20520000      -0.20510000
C       -2.40530000      -2.73550000      -0.03840000
C       -3.37680000      -2.71950000      -1.25660000
C       -3.89480000      -4.11370000      -0.81090000
C       -2.60840000      -4.27430000       0.04330000
H        0.42170000       1.95150000       0.55430000
H       -0.93240000       1.74430000      -0.43040000
H       -1.33660000      -0.39440000      -1.24090000
H       -0.50590000      -2.71090000      -1.05530000
H       -0.38560000      -2.41390000       0.68160000
H       -2.87420000      -2.24190000       0.81970000
H       -4.10040000      -1.90330000      -1.32780000
H       -2.82760000      -2.78250000      -2.20340000
H       -4.78800000      -4.03120000      -0.18530000
H       -4.08540000      -4.85680000      -1.58860000
H       -1.82460000      -4.80670000      -0.50640000
H       -2.69980000      -4.72290000       1.03510000
