16
Properties=species:S:1:pos:R:3 gdb_54800=T pbc="F F F"
C       -0.70340000       1.08520000       0.34960000
C        0.11920000      -0.18350000       0.26590000
O        0.81780000      -0.58480000       1.16520000
C        0.03470000      -0.93100000      -1.05630000
C        0.47550000      -2.39660000      -1.11360000
N       -0.45970000      -3.12160000      -0.25270000
C       -0.84630000      -2.84200000      -1.67940000
C       -1.34510000      -1.41590000      -1.63590000
O       -2.32290000      -0.84090000      -2.00770000
H       -0.29300000       1.83640000      -0.33640000
H       -1.73270000       0.89840000       0.02610000
H       -0.68110000       1.47670000       1.36720000
H        0.48900000      -0.32010000      -1.84760000
H        1.45810000      -2.77800000      -1.35310000
H       -0.17560000      -4.10100000      -0.22350000
H       -1.10620000      -3.64270000      -2.35870000
