20
Properties=species:S:1:pos:R:3 gdb_57666=T pbc="F F F"
C        0.03010000       1.60740000       0.08170000
C        0.05200000       0.07040000       0.09400000
C        0.80090000      -0.45690000       1.32860000
C       -1.39620000      -0.49430000       0.05440000
C       -2.22130000      -0.11520000       1.19200000
C       -2.90560000       0.19570000       2.12970000
N        0.69110000      -0.43530000      -1.13820000
C        1.96920000      -0.19220000      -1.52580000
O        2.78600000       0.47560000      -0.92460000
H        1.05000000       1.99330000       0.05890000
H       -0.50290000       1.97860000      -0.79970000
H       -0.47680000       1.98250000       0.97440000
H        0.30650000      -0.11530000       2.24150000
H        0.81530000      -1.55160000       1.33260000
H        1.83020000      -0.09600000       1.32090000
H       -1.87980000      -0.15240000      -0.87110000
H       -1.34290000      -1.59030000      -0.00250000
H       -3.51340000       0.46830000       2.95680000
H        0.13810000      -1.01260000      -1.75250000
H        2.19830000      -0.68980000      -2.49100000
