17
Properties=species:S:1:pos:R:3 gdb_44459=T pbc="F F F"
O        0.01760000       0.00810000       0.05860000
C       -0.03160000       1.19820000       0.02770000
C       -1.30880000       2.09820000       0.11960000
C       -0.64680000       3.40710000       0.44440000
C       -0.56550000       4.94810000       0.23330000
C        0.86400000       4.50180000       0.75610000
C        0.12510000       3.63020000       1.79390000
C        0.70760000       3.33210000      -0.25750000
O        1.11250000       1.97380000      -0.09130000
H       -1.81280000       2.08480000      -0.85340000
H       -1.98470000       1.68160000       0.86780000
H       -0.62820000       5.30980000      -0.79640000
H       -1.13610000       5.57840000       0.91790000
H        1.72390000       5.15200000       0.91510000
H       -0.42660000       4.16080000       2.57310000
H        0.67200000       2.77830000       2.19920000
H        0.76990000       3.59780000      -1.31710000
