14
Properties=species:S:1:pos:R:3 gdb_1208=T pbc="F F F"
C       -0.00500000       1.51100000      -0.02060000
C       -0.02050000      -0.00210000       0.06480000
O       -0.07020000      -0.59290000       1.11880000
C        0.03040000      -0.75310000      -1.26250000
C        0.00950000      -2.27560000      -1.05910000
C        0.05810000      -2.99930000      -2.32630000
N        0.09700000      -3.55630000      -3.33800000
H        0.90000000       1.85500000      -0.53380000
H       -0.85770000       1.86880000      -0.60860000
H       -0.04440000       1.93830000       0.98160000
H       -0.81390000      -0.43210000      -1.88490000
H        0.92980000      -0.44600000      -1.81020000
H        0.85480000      -2.58120000      -0.43510000
H       -0.89070000      -2.56730000      -0.50980000
