12
Properties=species:S:1:pos:R:3 gdb_4518=T pbc="F F F"
N        0.06780000       1.40640000      -0.15580000
C       -0.00250000       0.01940000      -0.06460000
C       -1.08230000      -0.79460000      -0.03320000
O       -2.40950000      -0.60250000       0.08090000
O       -0.60200000      -2.11920000      -0.00150000
C        0.73070000      -1.95930000      -0.02690000
O        1.48170000      -3.06140000      -0.01650000
N        1.16540000      -0.74630000      -0.06340000
H        0.93780000       1.75250000       0.22790000
H       -0.72260000       1.87010000       0.27240000
H       -2.83280000      -0.68070000      -0.78450000
H        0.89620000      -3.82610000       0.03880000
