21
Properties=species:S:1:pos:R:3 gdb_99852=T pbc="F F F"
C       -0.03820000       1.54070000      -0.14090000
C       -0.07670000       0.03200000       0.08870000
O        0.31110000      -0.67340000      -1.09110000
C        0.74080000      -0.46990000       1.32380000
C        0.05830000      -0.02420000       2.63420000
C        0.79760000      -2.03360000       1.28100000
O       -0.46460000      -2.61730000       1.03480000
C        2.11790000       0.01860000       1.25010000
C        3.26200000       0.38120000       1.15580000
H        0.98870000       1.88810000      -0.29340000
H       -0.62450000       1.78330000      -1.03110000
H       -0.45820000       2.09120000       0.70540000
H       -1.11080000      -0.27960000       0.26300000
H        1.23250000      -0.44950000      -1.27110000
H       -0.92540000      -0.49730000       2.70650000
H        0.65430000      -0.33500000       3.49650000
H       -0.06410000       1.05990000       2.68660000
H        1.53360000      -2.34660000       0.53300000
H        1.13470000      -2.39730000       2.25660000
H       -0.61950000      -2.52530000       0.08740000
H        4.27050000       0.70960000       1.09610000
