23
Properties=species:S:1:pos:R:3 gdb_104392=T pbc="F F F"
C        0.37010000       1.69240000      -0.06590000
C        0.02360000       0.20730000       0.10200000
C        0.54070000      -0.65350000      -1.07330000
C        1.96930000      -1.12710000      -0.67010000
C        2.13500000      -0.76660000       0.82580000
C        0.71570000      -0.41710000       1.33800000
O        0.72870000       0.50290000       2.41910000
C       -0.03150000      -1.67370000       1.80450000
O        0.63720000      -2.13700000       2.97790000
H        1.44460000       1.84290000      -0.21500000
H       -0.14610000       2.10060000      -0.94100000
H        0.07430000       2.26510000       0.81510000
H       -1.06560000       0.12270000       0.19890000
H       -0.11440000      -1.51630000      -1.23140000
H        0.53940000      -0.09020000      -2.01100000
H        2.08220000      -2.20180000      -0.83980000
H        2.73790000      -0.63990000      -1.27600000
H        2.58850000      -1.56690000       1.41570000
H        2.75840000       0.12260000       0.95290000
H        0.93100000      -0.02170000       3.20420000
H       -1.07200000      -1.40270000       2.03240000
H       -0.03450000      -2.44750000       1.02400000
H        0.07970000      -2.78700000       3.41370000
