17
Properties=species:S:1:pos:R:3 gdb_44506=T pbc="F F F"
O        0.00700000      -0.02050000       0.51350000
C       -0.01260000       1.11100000       0.09330000
C       -1.32050000       1.85210000      -0.17100000
C       -1.14840000       3.15040000      -0.94520000
C       -0.06760000       3.26350000      -2.06020000
O       -0.08370000       4.72950000      -1.88840000
C       -0.05900000       4.17410000      -0.52010000
C        1.04430000       3.17790000      -0.97370000
C        1.26890000       1.88460000      -0.20460000
H       -1.99460000       1.16190000      -0.69060000
H       -1.79230000       2.04790000       0.80160000
H       -2.09330000       3.62490000      -1.21770000
H       -0.07590000       2.87460000      -3.07950000
H       -0.05710000       4.88000000       0.31210000
H        1.96970000       3.67590000      -1.27040000
H        1.76080000       2.09240000       0.75550000
H        1.94640000       1.21130000      -0.74170000
