21
Properties=species:S:1:pos:R:3 gdb_33526=T pbc="F F F"
C       -0.24570000      -1.40000000      -0.09110000
C       -0.14850000      -0.20270000      -0.01350000
C       -0.00750000       1.23830000       0.10450000
C       -0.06700000       1.81030000       1.57060000
C        1.19320000       2.66340000       1.27280000
C        1.46660000       1.78670000       0.02330000
C       -0.93940000       2.00060000      -0.83080000
C       -1.26970000       1.50630000      -2.21440000
C       -2.33330000       1.52260000      -1.14140000
H       -0.32940000      -2.45640000      -0.15820000
H       -0.98930000       2.33300000       1.83440000
H        0.12260000       1.03000000       2.31030000
H        0.94920000       3.69730000       1.01520000
H        1.96870000       2.67910000       2.04120000
H        2.19600000       0.99810000       0.21830000
H        1.73000000       2.29120000      -0.90920000
H       -0.82340000       3.07710000      -0.73220000
H       -1.32960000       2.23230000      -3.01780000
H       -0.88010000       0.53780000      -2.50750000
H       -2.63750000       0.56470000      -0.73440000
H       -3.12600000       2.25980000      -1.20540000
