14
Properties=species:S:1:pos:R:3 gdb_2640=T pbc="F F F"
O       -0.02880000      -0.12180000       0.19430000
C        0.07960000       0.99910000      -0.22620000
C        1.34780000       1.83290000      -0.12650000
N        1.44370000       2.75830000      -1.24520000
C        2.47710000       3.77410000      -1.11410000
C        2.31680000       4.84460000      -2.18260000
O        3.22670000       5.47400000      -2.65270000
H       -0.76260000       1.53290000      -0.72150000
H        1.25680000       2.42430000       0.79730000
H        2.20780000       1.15850000       0.01090000
H        1.58470000       2.23840000      -2.10590000
H        2.33610000       4.27980000      -0.14670000
H        3.51480000       3.40520000      -1.13200000
H        1.25910000       5.00790000      -2.48970000
