20
Properties=species:S:1:pos:R:3 gdb_107209=T pbc="F F F"
C       -0.35480000       1.29840000      -0.11010000
O        0.22880000       0.02050000       0.07020000
C        0.80500000      -0.50120000      -1.08340000
C       -0.09090000      -1.09190000      -2.13970000
C        0.80990000      -1.99070000      -1.30570000
C        2.18860000      -2.36200000      -1.79440000
C        2.69520000      -1.84060000      -3.08940000
N        3.05030000      -1.15330000      -1.84150000
C        2.20460000       0.00500000      -1.47740000
H        0.39510000       2.05990000      -0.36800000
H       -1.12220000       1.28530000      -0.89690000
H       -0.82030000       1.57260000       0.83940000
H       -1.14580000      -1.13910000      -1.88860000
H        0.10820000      -0.93000000      -3.19290000
H        0.33200000      -2.64740000      -0.58900000
H        2.63330000      -3.25460000      -1.36330000
H        3.53030000      -2.33220000      -3.58240000
H        1.99740000      -1.36940000      -3.77650000
H        2.19840000       0.73980000      -2.29020000
H        2.64220000       0.48240000      -0.59440000
