21
Properties=species:S:1:pos:R:3 gdb_75444=T pbc="F F F"
C       -0.03690000       1.52610000       0.07700000
C        0.01030000       0.02600000      -0.02840000
C       -0.04080000      -0.61360000      -1.19880000
C       -0.02780000      -2.11120000      -1.35050000
C       -0.31620000      -2.83270000      -0.02850000
C        0.49590000      -2.20410000       1.12180000
C        0.11810000      -0.71810000       1.28510000
C        0.23480000      -2.95120000       2.41000000
O        1.05840000      -3.54940000       3.05240000
H        0.87330000       1.92120000       0.54660000
H       -0.14600000       1.99620000      -0.90390000
H       -0.87570000       1.85280000       0.70580000
H       -0.09840000      -0.03170000      -2.11660000
H       -0.76640000      -2.41370000      -2.10360000
H        0.94460000      -2.43600000      -1.74960000
H       -1.38600000      -2.75380000       0.20540000
H       -0.08570000      -3.89950000      -0.11810000
H        1.56580000      -2.29280000       0.90380000
H        0.85800000      -0.22210000       1.92670000
H       -0.83750000      -0.63300000       1.82760000
H       -0.83270000      -2.91410000       2.74070000
