19
Properties=species:S:1:pos:R:3 gdb_115537=T pbc="F F F"
C        0.01100000       1.53540000      -0.21070000
C        0.05420000       0.02590000       0.04780000
C       -1.34280000      -0.57100000       0.09680000
N       -2.09990000      -0.54600000      -1.18120000
C       -2.59140000      -1.92320000      -0.96940000
C       -1.48990000      -2.13040000       0.11570000
O       -0.31180000      -2.75040000      -0.34190000
C       -1.93870000      -2.72600000       1.37880000
N       -2.29580000      -3.21750000       2.36260000
H        1.02060000       1.95320000      -0.25920000
H       -0.48520000       1.75020000      -1.16270000
H       -0.53070000       2.06410000       0.58200000
H        0.62180000      -0.47660000      -0.73920000
H        0.56050000      -0.18330000       0.99810000
H       -1.90670000      -0.14420000       0.93920000
H       -2.82550000       0.15880000      -1.23580000
H       -3.60500000      -2.00540000      -0.55770000
H       -2.49720000      -2.57950000      -1.84130000
H       -0.47930000      -3.69450000      -0.44090000
