16
Properties=species:S:1:pos:R:3 gdb_127368=T pbc="F F F"
C       -0.40000000       1.37740000       0.00790000
N       -0.02770000      -0.03200000      -0.00880000
C        0.01660000      -0.73950000      -1.18650000
N        0.33060000      -1.97690000      -1.31050000
N        0.64530000      -2.62130000      -0.13910000
C        0.65790000      -2.08790000       1.12710000
N        0.95080000      -2.68940000       2.21750000
C        0.28150000      -0.63500000       1.20740000
N        0.23530000       0.03630000       2.28650000
H        0.41150000       1.97620000       0.42910000
H       -0.61060000       1.70030000      -1.01250000
H       -1.28180000       1.52640000       0.63620000
H       -0.23920000      -0.19120000      -2.08460000
H        0.88780000      -3.59110000      -0.26730000
H        1.19280000      -3.66920000       2.06720000
H        0.49500000      -0.58830000       3.05230000
