16
Properties=species:S:1:pos:R:3 gdb_46952=T pbc="F F F"
O        0.00970000      -0.04660000      -0.00960000
C       -0.02870000       1.17050000       0.00440000
N       -1.21000000       1.85880000      -0.06750000
C       -1.39660000       3.30000000      -0.03940000
C       -0.12420000       3.99740000       0.40030000
O        0.29280000       3.53890000       1.72150000
C        1.49350000       3.02200000       1.15940000
C        1.18300000       3.49290000      -0.22700000
C        1.21640000       2.00530000       0.06590000
H       -2.02610000       1.26650000      -0.10030000
H       -1.69580000       3.68650000      -1.02610000
H       -2.19690000       3.55250000       0.66720000
H       -0.24440000       5.08430000       0.39030000
H        2.39140000       3.02870000       1.76470000
H        1.77700000       3.98800000      -0.98210000
H        2.09850000       1.47260000      -0.27080000
