20
Properties=species:S:1:pos:R:3 gdb_115682=T pbc="F F F"
C       -0.62510000       1.46710000      -0.22050000
C       -0.40190000      -0.04170000      -0.08230000
C        0.26390000      -0.62430000      -1.31780000
O        1.58480000      -0.08510000      -1.54440000
C        2.19210000      -1.39010000      -1.45970000
C        0.83170000      -2.08380000      -1.26540000
C        0.65840000      -2.83990000       0.04060000
N       -0.33170000      -3.77880000       0.03320000
O        1.32900000      -2.61100000       1.03070000
H        0.32630000       1.97570000      -0.39870000
H       -1.29270000       1.69800000      -1.05850000
H       -1.07110000       1.88330000       0.68740000
H        0.22340000      -0.25660000       0.78970000
H       -1.35930000      -0.55780000       0.07210000
H       -0.37240000      -0.45760000      -2.19970000
H        2.73100000      -1.65260000      -2.37720000
H        2.85340000      -1.48160000      -0.59250000
H        0.50940000      -2.68900000      -2.11580000
H       -0.87580000      -3.98580000      -0.78520000
H       -0.51390000      -4.28970000       0.88160000
