16
Properties=species:S:1:pos:R:3 gdb_38088=T pbc="F F F"
C       -0.03510000       1.54050000      -0.25470000
C        1.49770000       1.61050000       0.08760000
N        1.83240000       2.33210000       1.32960000
C        1.76180000       1.48620000       2.27450000
N        1.44880000       0.12590000       1.94000000
C        0.10530000      -0.25350000       2.27320000
N       -0.73550000      -0.36460000       1.32770000
C       -0.03020000       0.00590000       0.08640000
C        1.46780000       0.10900000       0.44760000
H       -0.67130000       2.14590000       0.39270000
H       -0.26710000       1.76220000      -1.29860000
H        2.14150000       1.92990000      -0.73140000
H        1.90770000       1.73750000       3.32070000
H       -0.13940000      -0.41230000       3.31910000
H       -0.31710000      -0.65220000      -0.73330000
H        2.20500000      -0.59270000       0.05570000
