22
Properties=species:S:1:pos:R:3 gdb_59350=T pbc="F F F"
C        0.09500000       1.68060000       0.07570000
C        0.09480000       0.16070000      -0.00490000
C        0.73000000      -0.57210000      -1.23010000
C        1.40690000      -1.60450000      -0.27620000
N        2.78290000      -1.97360000      -0.51650000
C        3.34680000      -2.72190000       0.60300000
C        2.93440000      -2.69650000      -1.77070000
C        1.10600000      -0.60440000       0.86210000
O        1.59200000      -0.39200000       1.93710000
H        1.09390000       2.08280000      -0.12060000
H       -0.59640000       2.11500000      -0.65320000
H       -0.20730000       2.01180000       1.07350000
H       -0.91060000      -0.23340000       0.19110000
H        0.04440000      -0.96820000      -1.97970000
H        1.48740000       0.05110000      -1.71310000
H        0.74000000      -2.48550000      -0.15060000
H        2.86000000      -3.70650000       0.74530000
H        4.41160000      -2.89730000       0.42030000
H        3.23780000      -2.14540000       1.52260000
H        2.55610000      -2.09520000      -2.60250000
H        3.99560000      -2.89490000      -1.95020000
H        2.40030000      -3.66690000      -1.77830000
