17
Properties=species:S:1:pos:R:3 gdb_125044=T pbc="F F F"
C        0.01650000       1.54680000       0.01000000
C       -0.00380000       0.04550000       0.02590000
C       -1.15210000      -0.69060000       0.01590000
N       -2.45350000      -0.19000000       0.08140000
N       -1.10240000      -2.06610000      -0.02000000
N        0.03220000      -2.79160000      -0.01340000
C        1.13860000      -2.12470000       0.00490000
C        1.26670000      -0.66480000       0.04860000
N        2.39110000      -0.02600000       0.08800000
H        0.90560000       1.88210000      -0.52970000
H       -0.86860000       1.97810000      -0.47090000
H        0.09040000       1.96720000       1.02070000
H       -2.49000000       0.81840000       0.04840000
H       -3.08130000      -0.58850000      -0.60680000
H       -1.94030000      -2.60090000       0.14040000
H        2.04400000      -2.72730000      -0.00090000
H        3.17120000      -0.68580000       0.07050000
