20
Properties=species:S:1:pos:R:3 gdb_12854=T pbc="F F F"
C       -0.10700000       1.54920000       0.12000000
C        0.00340000       0.03820000       0.07100000
C       -1.31800000      -0.71810000      -0.10260000
C       -1.01710000      -2.13970000       0.40540000
C       -0.07250000      -1.90730000       1.60450000
C        0.80020000      -0.71570000       1.18520000
C        1.81950000      -0.99280000       0.06530000
O        0.97530000      -0.38650000      -0.93310000
H        0.87680000       2.00790000       0.25600000
H       -0.53060000       1.93160000      -0.81490000
H       -0.75540000       1.86710000       0.94350000
H       -2.09100000      -0.24580000       0.51700000
H       -1.65720000      -0.68780000      -1.14220000
H       -1.91620000      -2.69970000       0.67570000
H       -0.50250000      -2.70680000      -0.37740000
H       -0.65650000      -1.63710000       2.49260000
H        0.51680000      -2.79300000       1.86370000
H        1.17190000      -0.12580000       2.02460000
H        2.77710000      -0.46480000       0.16450000
H        2.02160000      -2.05020000      -0.15120000
