16
Properties=species:S:1:pos:R:3 gdb_31057=T pbc="F F F"
C       -0.07040000       1.46940000      -0.08640000
N        0.36920000       0.09540000       0.12050000
C        0.75480000      -0.65110000      -0.97510000
C        0.63970000      -1.99320000      -1.15980000
N        0.09480000      -3.00770000      -0.39660000
O        1.28760000      -2.26740000      -2.40780000
C        1.67940000      -1.06010000      -2.82220000
O        2.30600000      -0.98460000      -3.99810000
N        1.41400000      -0.05930000      -2.05180000
H        0.69020000       2.00200000      -0.65910000
H       -1.02470000       1.55150000      -0.62980000
H       -0.18000000       1.95560000       0.88650000
H       -0.22260000      -0.44050000       0.74050000
H       -0.65110000      -3.52390000      -0.85100000
H        0.76890000      -3.66410000      -0.01550000
H        2.37320000      -1.87650000      -4.35920000
