14
Properties=species:S:1:pos:R:3 gdb_48474=T pbc="F F F"
O       -0.82370000       0.97530000       0.37070000
C        0.32150000       0.82950000       0.05900000
C        1.38990000       1.95060000       0.08640000
O        2.66460000       1.35280000       0.25600000
C        3.53830000       1.71980000      -0.82080000
C        2.66530000       2.46970000      -1.78210000
C        1.44710000       2.61980000      -1.27810000
C        1.10550000       2.92130000       1.16190000
N        0.89890000       3.69110000       1.99730000
H        0.74660000      -0.12100000      -0.32710000
H        4.36710000       2.33630000      -0.44360000
H        3.96940000       0.80600000      -1.24910000
H        3.01830000       2.84910000      -2.73230000
H        0.59440000       3.13070000      -1.70200000
