18
Properties=species:S:1:pos:R:3 gdb_7911=T pbc="F F F"
C       -0.09310000       1.55950000       0.03500000
C        0.03220000       0.02730000       0.01180000
C        0.79920000      -0.51350000      -1.21390000
C        1.94250000      -1.37010000      -0.64720000
O        2.75600000      -1.98640000      -1.29780000
C        1.84370000      -1.29010000       0.82190000
C        0.80260000      -0.53220000       1.20120000
C        0.37690000      -0.24360000       2.60440000
H        0.89560000       2.03130000       0.02910000
H       -0.63910000       1.91100000      -0.84570000
H       -0.63130000       1.91030000       0.92080000
H       -0.98500000      -0.38890000       0.03960000
H        0.17960000      -1.12130000      -1.87940000
H        1.22430000       0.28910000      -1.82570000
H        2.53580000      -1.80380000       1.47830000
H        0.98440000      -0.78630000       3.33210000
H        0.45190000       0.82750000       2.82730000
H       -0.67480000      -0.51790000       2.75500000
