19
Properties=species:S:1:pos:R:3 gdb_108336=T pbc="F F F"
C        0.03260000       1.53280000       0.23190000
C       -0.11850000       0.03650000      -0.07300000
C        0.68230000      -0.44580000      -1.26590000
C        0.94400000      -1.96350000      -1.45050000
O        2.37890000      -1.75520000      -1.52780000
C        2.22630000      -0.33830000      -1.38970000
C        2.04570000       0.46060000      -2.71640000
O        1.28610000      -0.35440000      -3.61040000
C        0.57610000       0.35700000      -2.59810000
H        1.07730000       1.79380000       0.43150000
H       -0.31130000       2.15610000      -0.59950000
H       -0.55210000       1.80800000       1.11430000
H        0.18170000      -0.54400000       0.80800000
H       -1.17940000      -0.19600000      -0.24300000
H        0.68240000      -2.57140000      -0.57550000
H        0.54760000      -2.41990000      -2.36130000
H        2.87840000       0.11420000      -0.63720000
H        2.68230000       1.21870000      -3.15960000
H       -0.21410000       1.02500000      -2.92370000
