25
Properties=species:S:1:pos:R:3 gdb_104150=T pbc="F F F"
C       -0.31550000       1.42580000       0.01340000
C       -0.00060000      -0.06520000      -0.14780000
C        0.95220000      -0.43760000      -1.31770000
C        2.35950000       0.13280000      -1.07310000
C        0.98800000      -1.98860000      -1.49660000
C        0.00090000      -2.31580000      -2.64130000
C       -0.14470000      -0.99450000      -3.36920000
C       -0.82810000      -0.90170000      -4.69700000
C        0.37760000       0.00260000      -2.65290000
H        0.58380000       2.01650000       0.21410000
H       -0.79030000       1.83360000      -0.88460000
H       -1.00310000       1.58530000       0.85010000
H        0.43820000      -0.44480000       0.78510000
H       -0.94260000      -0.61030000      -0.28840000
H        2.78200000      -0.25080000      -0.13680000
H        3.03660000      -0.14580000      -1.88690000
H        2.35350000       1.22580000      -1.01080000
H        1.99760000      -2.29360000      -1.79100000
H        0.75310000      -2.51610000      -0.56720000
H        0.36840000      -3.11600000      -3.29570000
H       -0.97500000      -2.65870000      -2.26820000
H       -1.85940000      -1.27370000      -4.63820000
H       -0.85990000       0.12690000      -5.06690000
H       -0.32030000      -1.51960000      -5.44900000
H        0.37550000       1.04330000      -2.96290000
