16
Properties=species:S:1:pos:R:3 gdb_54055=T pbc="F F F"
N       -0.15380000       1.29780000      -0.33590000
C        0.02780000      -0.02890000       0.01840000
N        1.10950000      -0.59300000       0.39350000
N       -1.17180000      -0.77650000       0.00720000
C       -2.49040000      -0.13740000       0.02630000
C       -2.89920000       0.41460000      -1.26640000
C       -3.21620000       0.89200000      -2.32330000
C       -1.13030000      -2.16430000       0.05830000
O       -2.12020000      -2.85680000       0.12120000
H        0.70310000       1.81670000      -0.45170000
H       -0.84720000       1.49520000      -1.04650000
H        1.90930000       0.02410000       0.27190000
H       -3.18840000      -0.92320000       0.32870000
H       -2.50110000       0.64960000       0.78660000
H       -3.52070000       1.29010000      -3.26030000
H       -0.10060000      -2.54060000       0.03640000
