16
Properties=species:S:1:pos:R:3 gdb_5309=T pbc="F F F"
C        0.12350000       1.43150000       0.84050000
C       -0.13960000       0.28790000      -0.13680000
O        0.84290000      -0.75050000      -0.03060000
C       -1.51850000      -0.28610000       0.00290000
C       -2.69380000       0.13910000       0.57250000
N       -3.69540000      -0.78770000       0.38840000
C       -3.13590000      -1.76860000      -0.28250000
N       -1.82490000      -1.51400000      -0.54760000
H        1.14480000       1.79810000       0.71210000
H       -0.56930000       2.26070000       0.66880000
H       -0.00360000       1.09500000       1.87530000
H        0.00090000       0.66160000      -1.16000000
H        0.79880000      -1.09250000       0.87040000
H       -2.87930000       1.06320000       1.09850000
H       -3.62210000      -2.68060000      -0.59580000
H       -1.15170000      -2.11560000      -0.99370000
