15
Properties=species:S:1:pos:R:3 gdb_34137=T pbc="F F F"
N       -0.04960000      -1.11830000       0.07640000
C       -0.03740000       0.03780000       0.06470000
C       -0.02400000       1.48110000       0.01460000
N       -0.64340000       2.34640000       1.08230000
C       -0.08560000       3.30640000       0.05740000
C        1.22280000       2.44760000      -0.03020000
C        1.70240000       2.50070000      -1.46690000
C        0.58280000       2.48060000      -2.19590000
C       -0.52570000       2.41600000      -1.16340000
H       -1.66370000       2.30570000       0.99550000
H       -0.16780000       4.38900000       0.16630000
H        1.91040000       2.43750000       0.81230000
H        2.73280000       2.53780000      -1.78930000
H        0.45980000       2.49680000      -3.26930000
H       -1.57620000       2.37280000      -1.45180000
