19
Properties=species:S:1:pos:R:3 gdb_94116=T pbc="F F F"
C        0.19460000       1.53420000       0.24590000
C        0.17480000       0.03690000       0.04440000
O        0.96500000      -0.32710000      -1.07760000
C        1.57840000      -1.57770000      -0.79300000
C        1.15300000      -1.89490000       0.66020000
C        2.25550000      -2.46080000       1.55100000
C        1.78120000      -2.71500000       2.96890000
O        1.90730000      -3.76420000       3.54640000
O        0.74720000      -0.62360000       1.15220000
H        1.22130000       1.86980000       0.40940000
H       -0.20800000       2.03080000      -0.64020000
H       -0.41740000       1.80500000       1.10990000
H       -0.85730000      -0.33240000      -0.10680000
H        1.23950000      -2.34840000      -1.49570000
H        2.66640000      -1.47180000      -0.88520000
H        0.28960000      -2.57970000       0.65190000
H        2.64410000      -3.39700000       1.14020000
H        3.06990000      -1.72470000       1.58940000
H        1.29560000      -1.84150000       3.45420000
