22
Properties=species:S:1:pos:R:3 gdb_10331=T pbc="F F F"
C       -0.00310000       1.61780000      -0.03560000
C       -0.00780000       0.08540000       0.01270000
C       -1.42580000      -0.53080000       0.01900000
C       -2.10740000      -0.14710000      -1.28060000
O       -3.06070000       0.57930000      -1.39490000
C       -1.43480000      -2.07680000       0.16080000
C       -0.71380000      -2.56090000       1.42700000
C       -2.87360000      -2.61860000       0.13760000
H        1.02110000       2.00260000      -0.02440000
H       -0.49500000       2.00200000      -0.93450000
H       -0.52880000       2.03910000       0.82780000
H        0.55330000      -0.31710000      -0.84210000
H        0.52610000      -0.24390000       0.90860000
H       -2.01130000      -0.08770000       0.83470000
H       -1.62380000      -0.59930000      -2.18270000
H       -0.90230000      -2.48960000      -0.70920000
H       -1.15580000      -2.11360000       2.32520000
H       -0.80570000      -3.64780000       1.52100000
H        0.35270000      -2.32340000       1.42170000
H       -3.44540000      -2.23920000       0.99240000
H       -3.41230000      -2.32840000      -0.76970000
H       -2.87710000      -3.71160000       0.19240000
