23
Properties=species:S:1:pos:R:3 gdb_89890=T pbc="F F F"
C        0.00320000       1.58780000       0.01720000
C        0.08340000       0.06960000      -0.00660000
C        1.14430000      -0.61810000      -0.91190000
C        1.38660000      -1.65650000       0.21590000
C        0.75880000      -3.09110000       0.12150000
C        2.12930000      -3.69180000       0.45400000
C        3.14490000      -3.24570000      -0.55860000
C        2.73940000      -2.29090000       0.53260000
C        0.71390000      -0.67200000       1.20600000
H        0.98490000       2.02860000       0.22680000
H       -0.34050000       1.98470000      -0.94490000
H       -0.69110000       1.93990000       0.78880000
H       -0.90680000      -0.34990000      -0.21820000
H        0.82020000      -0.99130000      -1.88760000
H        2.02110000       0.02350000      -1.05780000
H        0.01000000      -3.26190000       0.89950000
H        0.33210000      -3.38230000      -0.84550000
H        2.30180000      -4.54590000       1.09750000
H        4.13470000      -3.67810000      -0.45010000
H        2.85110000      -3.06140000      -1.58990000
H        3.45920000      -1.89300000       1.23980000
H        1.46000000      -0.04280000       1.70640000
H        0.04570000      -1.08840000       1.96580000
