13
Properties=species:S:1:pos:R:3 gdb_127817=T pbc="F F F"
C       -0.32970000       1.38280000      -0.00180000
N       -0.01470000      -0.04320000      -0.00410000
N        0.01350000      -0.64550000      -1.19830000
N        0.26190000      -1.83960000      -1.37650000
O        0.54980000      -2.67530000      -0.19790000
C        0.54970000      -2.17110000       1.05400000
O        0.78710000      -2.86570000       2.00130000
C        0.23880000      -0.70730000       1.19110000
N        0.19920000      -0.08260000       2.29460000
H        0.49620000       1.94250000       0.44290000
H       -0.48740000       1.68390000      -1.03570000
H       -1.22710000       1.56150000       0.59470000
H        0.41140000      -0.73900000       3.04800000
