26
Properties=species:S:1:pos:R:3 gdb_119048=T pbc="F F F"
C       -1.77200000       1.42270000       1.75250000
C       -1.67560000      -0.09760000       1.59420000
C       -1.26830000      -0.51800000       0.17280000
C       -1.20990000      -2.02710000      -0.04520000
C       -0.05230000      -2.70860000       0.68520000
C        0.03810000      -4.22860000       0.53290000
C       -2.50000000      -2.74380000      -0.29990000
N       -1.51150000      -2.60510000      -1.36160000
C       -1.84000000      -1.78220000      -2.51290000
H       -2.06520000       1.69990000       2.76990000
H       -0.81140000       1.90510000       1.54000000
H       -2.51240000       1.84720000       1.06510000
H       -0.95810000      -0.49040000       2.32350000
H       -2.64170000      -0.55640000       1.83950000
H       -1.97690000      -0.06740000      -0.52920000
H       -0.28600000      -0.08420000      -0.06310000
H        0.87790000      -2.25390000       0.31570000
H       -0.10800000      -2.45320000       1.75040000
H        0.96330000      -4.60060000       0.98350000
H       -0.79400000      -4.73650000       1.03140000
H        0.02450000      -4.51140000      -0.52190000
H       -2.67850000      -3.75210000       0.06450000
H       -3.39790000      -2.12690000      -0.36160000
H       -2.54030000      -0.95680000      -2.31060000
H       -0.92380000      -1.35830000      -2.93740000
H       -2.29810000      -2.42160000      -3.27510000
