19
Properties=species:S:1:pos:R:3 gdb_104707=T pbc="F F F"
O       -0.03340000       1.55510000       0.11750000
C        0.09230000       0.14050000       0.27780000
C       -1.26410000      -0.49960000       0.02160000
C       -2.32950000      -0.00130000       1.00890000
O       -2.73020000       1.33110000       0.77470000
C       -1.76200000      -0.43690000      -1.46030000
C       -1.85500000      -1.96740000      -1.44820000
O       -2.28390000      -2.78320000      -2.21000000
C       -1.20830000      -2.06160000      -0.05250000
H        0.79410000       1.97360000       0.37260000
H        0.83690000      -0.25960000      -0.42760000
H        0.42910000      -0.10730000       1.29650000
H       -3.23280000      -0.61580000       0.91180000
H       -1.95510000      -0.14350000       2.03860000
H       -1.91800000       1.84720000       0.68140000
H       -2.69770000       0.10340000      -1.62390000
H       -1.02150000      -0.06430000      -2.17590000
H       -0.19720000      -2.48240000      -0.09320000
H       -1.77830000      -2.61190000       0.70190000
