21
Properties=species:S:1:pos:R:3 gdb_94680=T pbc="F F F"
C       -0.05070000       1.56280000       0.00770000
C        0.04160000       0.03680000       0.01500000
C        0.77280000      -0.56720000      -1.21180000
C        1.31110000      -1.94510000      -0.75460000
C        1.55490000      -1.77110000       0.73260000
O        1.60280000      -2.91970000       1.51520000
C        2.30860000      -0.53000000       1.18870000
C        0.79010000      -0.56550000       1.19710000
O        0.12450000      -0.68890000       2.42390000
H        0.94670000       2.01700000       0.00060000
H       -0.58920000       1.92470000      -0.87430000
H       -0.58250000       1.93030000       0.89230000
H       -0.97490000      -0.37780000       0.06200000
H        0.11560000      -0.64590000      -2.08180000
H        1.60220000       0.08680000      -1.50400000
H        0.55270000      -2.72610000      -0.88030000
H        2.20000000      -2.25570000      -1.31280000
H        1.04860000      -2.74230000       2.28780000
H        2.78350000      -0.63000000       2.15920000
H        2.84030000       0.10050000       0.48280000
H        0.34010000       0.07060000       2.97440000
