21
Properties=species:S:1:pos:R:3 gdb_89235=T pbc="F F F"
C       -0.13120000       1.54290000      -0.02380000
C        0.03800000       0.02290000      -0.01250000
C        0.96530000      -0.53930000      -1.12640000
C        2.00260000      -1.26570000      -0.26670000
O        2.99880000      -1.99730000      -0.91540000
C        1.29070000      -1.96160000       0.93030000
C        2.53370000      -1.68730000       1.81310000
C        2.32750000      -0.38660000       1.00030000
C        0.78650000      -0.51220000       1.21710000
H        0.83880000       2.04920000       0.03980000
H       -0.62390000       1.88210000      -0.94120000
H       -0.73740000       1.88040000       0.82420000
H       -0.95350000      -0.44190000      -0.07350000
H        0.45870000      -1.22590000      -1.81160000
H        1.42170000       0.25550000      -1.73030000
H        3.45230000      -1.40990000      -1.52890000
H        0.68220000      -2.86710000       0.87970000
H        2.36140000      -1.62130000       2.89100000
H        3.42820000      -2.26820000       1.58340000
H        2.92400000       0.52820000       1.03170000
H        0.38430000      -0.29240000       2.20770000
