20
Properties=species:S:1:pos:R:3 gdb_82165=T pbc="F F F"
C       -0.04890000       1.52930000       0.02680000
C        0.13300000       0.03510000      -0.02590000
N       -0.52510000      -0.81990000       0.99780000
C        0.95360000      -0.73480000       0.93930000
C        1.54800000      -1.97050000       0.25480000
O        1.20710000      -3.17220000       0.92040000
C        1.09020000      -1.87910000      -1.21410000
C       -0.37560000      -2.00390000      -1.55090000
C        0.24140000      -0.63850000      -1.39090000
H        0.72190000       2.03750000      -0.56290000
H       -1.02390000       1.82300000      -0.37850000
H        0.01680000       1.90050000       1.05500000
H       -0.86910000      -0.23610000       1.75690000
H        1.48130000      -0.27330000       1.76870000
H        2.64140000      -1.91580000       0.28730000
H        0.25900000      -3.10990000       1.09370000
H        1.80320000      -2.18240000      -1.97250000
H       -0.61250000      -2.32830000      -2.55870000
H       -1.07330000      -2.33030000      -0.79040000
H        0.34490000       0.01140000      -2.25280000
