19
Properties=species:S:1:pos:R:3 gdb_118304=T pbc="F F F"
C        0.10900000       1.07170000      -0.35840000
O        0.01150000      -0.28120000       0.02990000
C        0.62630000      -0.55880000       1.27110000
C        0.55210000      -2.07300000       1.45230000
O        1.16120000      -2.72680000       0.35450000
C        1.27600000      -2.53550000       2.70810000
O        1.01800000      -3.91530000       2.96880000
C        1.84060000      -4.82170000       2.39400000
O        1.66370000      -5.99700000       2.50210000
H        1.15770000       1.38970000      -0.45890000
H       -0.38730000       1.16850000      -1.32650000
H       -0.38720000       1.73590000       0.36490000
H        1.67860000      -0.22880000       1.26090000
H        0.10940000      -0.03670000       2.09270000
H       -0.50760000      -2.36120000       1.53640000
H        0.79000000      -2.32200000      -0.43890000
H        2.35370000      -2.36060000       2.59760000
H        0.91810000      -1.99050000       3.58530000
H        2.67680000      -4.35550000       1.84420000
