20
Properties=species:S:1:pos:R:3 gdb_54526=T pbc="F F F"
N        0.14310000       1.20310000      -0.30610000
C       -0.02760000      -0.00530000       0.31710000
O        0.81370000      -0.46060000       1.07390000
C       -1.28950000      -0.73980000      -0.01440000
C       -1.85630000      -1.60290000       1.10350000
C       -1.23360000      -2.26670000      -0.08240000
C       -2.14060000      -2.71720000      -1.21570000
C       -3.09010000      -1.52170000      -1.46410000
C       -2.26800000      -0.26610000      -1.08520000
H        0.92870000       1.75780000      -0.00550000
H       -0.62120000       1.67540000      -0.75610000
H       -1.27370000      -1.60180000       2.01670000
H       -2.93280000      -1.62870000       1.23730000
H       -0.27490000      -2.74940000       0.06470000
H       -1.53290000      -2.91640000      -2.10620000
H       -2.68880000      -3.63750000      -0.98720000
H       -3.45640000      -1.48240000      -2.49300000
H       -3.97180000      -1.59960000      -0.82100000
H       -2.91260000       0.55790000      -0.75600000
H       -1.70380000       0.08580000      -1.95800000
