22
Properties=species:S:1:pos:R:3 gdb_17056=T pbc="F F F"
C        0.03760000       1.45810000      -0.22700000
C        0.20750000      -0.06630000      -0.25410000
C        0.79160000      -0.60320000       1.04850000
C       -0.06400000      -0.74940000       2.35420000
C       -0.72980000      -2.00180000       1.71280000
C        0.79040000      -2.12760000       1.39970000
C        1.03000000      -1.73060000       2.89620000
C        2.37770000      -1.25770000       3.42230000
H        0.99040000       1.95980000      -0.02360000
H       -0.33870000       1.83440000      -1.18340000
H       -0.66810000       1.76390000       0.55290000
H       -0.75340000      -0.53170000      -0.49410000
H        0.88680000      -0.33870000      -1.07330000
H        1.75660000      -0.11390000       1.21000000
H       -0.56230000       0.04630000       2.91280000
H       -1.14160000      -2.73840000       2.40880000
H       -1.40790000      -1.84220000       0.87500000
H        1.28370000      -2.93060000       0.84660000
H        0.61590000      -2.46910000       3.59300000
H        2.86890000      -0.51560000       2.78870000
H        2.26000000      -0.81390000       4.41740000
H        3.06250000      -2.10700000       3.52530000
