16
Properties=species:S:1:pos:R:3 gdb_75693=T pbc="F F F"
C       -0.30070000       1.48540000       0.00320000
C        0.00080000      -0.02540000       0.00300000
C        0.85060000      -0.48040000      -1.19270000
O        0.46530000      -0.61970000      -2.32440000
C        2.23690000      -0.80770000      -0.69330000
N        2.78560000       0.33380000       0.07590000
C        2.19870000      -0.81570000       0.80390000
C        0.78870000      -0.49320000       1.23550000
O        0.34620000      -0.64460000       2.34450000
H        0.62340000       2.06620000       0.02990000
H       -0.85840000       1.75000000      -0.89890000
H       -0.90380000       1.74060000       0.87850000
H       -0.94760000      -0.57360000      -0.02410000
H        2.89410000      -1.44190000      -1.27670000
H        3.80000000       0.24670000       0.10130000
H        2.82540000      -1.45610000       1.41330000
