16
Properties=species:S:1:pos:R:3 gdb_20581=T pbc="F F F"
C       -0.10800000       1.50020000       0.13770000
C       -0.01060000       0.02180000      -0.05070000
C        0.03670000      -0.75460000      -1.19810000
C       -0.01500000      -0.33280000      -2.63230000
C        0.15230000      -2.07410000      -0.69770000
O        0.22720000      -3.18170000      -1.46980000
N        0.17530000      -2.13830000       0.62280000
N        0.07660000      -0.83530000       0.99840000
H        0.87920000       1.97010000       0.22390000
H       -0.61730000       1.96350000      -0.71110000
H       -0.67400000       1.75030000       1.04110000
H        0.97000000      -0.37780000      -3.11290000
H       -0.68000000      -0.98310000      -3.20980000
H       -0.38030000       0.69370000      -2.73430000
H        0.27770000      -3.93820000      -0.87230000
H        0.05740000      -0.61160000       1.97750000
