16
Properties=species:S:1:pos:R:3 gdb_73774=T pbc="F F F"
C        0.08480000       1.52640000       0.05690000
C       -0.01670000       0.04130000       0.00640000
C       -1.08820000      -0.77210000       0.02450000
C       -2.54890000      -0.48870000       0.10100000
C       -0.59520000      -2.17180000      -0.04960000
O       -1.20480000      -3.19930000      -0.06030000
O        0.79510000      -2.13500000      -0.11090000
C        1.18760000      -0.80990000      -0.07950000
N        2.38400000      -0.41090000      -0.11860000
H        0.68380000       1.83830000       0.91870000
H        0.60380000       1.90310000      -0.83050000
H       -0.89750000       1.99840000       0.11930000
H       -3.06680000      -0.90560000      -0.76950000
H       -2.98760000      -0.97010000       0.98170000
H       -2.75400000       0.58240000       0.14970000
H        3.03160000      -1.19860000      -0.17690000
