23
Properties=species:S:1:pos:R:3 gdb_121359=T pbc="F F F"
C        0.06680000       1.46390000      -0.12690000
C       -0.02660000      -0.02610000       0.15740000
O       -1.33150000      -0.45950000      -0.17100000
C       -1.52670000      -1.84590000      -0.06610000
C       -1.56520000      -2.42120000       1.36900000
C       -2.41280000      -3.71880000       1.25370000
C       -2.99220000      -3.71790000      -0.18940000
C       -2.88260000      -2.25850000      -0.65110000
O       -3.87450000      -1.43960000      -0.04490000
H        1.06610000       1.83810000       0.11570000
H       -0.13540000       1.66530000      -1.18270000
H       -0.66560000       2.01300000       0.47140000
H        0.71860000      -0.58080000      -0.43950000
H        0.19650000      -0.22730000       1.21720000
H       -0.74890000      -2.37390000      -0.64710000
H       -0.56720000      -2.60770000       1.77280000
H       -2.05800000      -1.68780000       2.01240000
H       -1.81660000      -4.61670000       1.43620000
H       -3.21500000      -3.71730000       1.99510000
H       -2.39690000      -4.35730000      -0.85140000
H       -4.02320000      -4.08300000      -0.23860000
H       -2.90240000      -2.14970000      -1.74460000
H       -4.73370000      -1.76680000      -0.32800000
