18
Properties=species:S:1:pos:R:3 gdb_18764=T pbc="F F F"
C        0.01860000       1.51020000       0.08440000
C        1.57940000       1.53210000      -0.04440000
C        1.55130000       0.03190000       0.17900000
O        2.50180000      -0.91050000      -0.29000000
C        2.28290000      -1.74510000       0.87980000
C        1.34450000      -0.70100000       1.53130000
C       -0.17690000      -0.85740000       1.24590000
C        0.00440000      -0.04840000      -0.06580000
H       -0.34470000       1.85550000       1.05600000
H       -0.51670000       2.05370000      -0.69560000
H        1.89000000       1.77020000      -1.06680000
H        2.15660000       2.14780000       0.65160000
H        1.81690000      -2.70410000       0.61970000
H        3.22380000      -1.93280000       1.40840000
H        1.66600000      -0.30040000       2.49340000
H       -0.49780000      -1.89420000       1.10490000
H       -0.83650000      -0.39450000       1.98630000
H       -0.43600000      -0.42440000      -0.99010000
