17
Properties=species:S:1:pos:R:3 gdb_34025=T pbc="F F F"
C        0.00690000      -1.16020000       0.02730000
C        0.00870000       0.04280000       0.00210000
C       -0.01400000       1.47660000      -0.01350000
C        0.47340000       2.20060000      -1.26560000
C        1.31850000       2.22910000      -0.02780000
O        1.43180000       3.43730000       0.66840000
C        0.42020000       3.63800000       1.62650000
O       -0.86120000       3.48340000       1.08200000
C       -1.13040000       2.11580000       0.81360000
H        0.01010000      -2.22180000       0.04410000
H        0.78970000       1.59180000      -2.10400000
H       -0.03340000       3.12710000      -1.51110000
H        2.23030000       1.64030000       0.00110000
H        0.55190000       2.94250000       2.47470000
H        0.51590000       4.67210000       1.96120000
H       -2.08520000       2.08100000       0.28250000
H       -1.23540000       1.55890000       1.75690000
