17
Properties=species:S:1:pos:R:3 gdb_34928=T pbc="F F F"
C        0.05170000      -1.21690000       0.03130000
C        0.08570000      -0.01490000       0.04050000
C        0.09980000       1.42130000       0.05930000
C        0.51400000       2.23900000       1.26300000
C        1.63450000       1.52660000       2.03820000
C        2.49090000       1.62610000       0.75790000
C        3.92180000       1.90490000       0.64860000
O        3.37040000       0.63800000       0.26040000
C        1.36330000       2.26720000      -0.01310000
H        0.03980000      -2.27830000       0.01140000
H       -0.71750000       1.87840000      -0.49440000
H       -0.12680000       3.01670000       1.65730000
H        2.03820000       2.11350000       2.86620000
H        1.40250000       0.51510000       2.37990000
H        4.29690000       2.52050000      -0.16890000
H        4.54490000       1.89210000       1.54250000
H        1.46330000       3.04020000      -0.76580000
