25
Properties=species:S:1:pos:R:3 gdb_81774=T pbc="F F F"
C       -0.43560000       1.52780000       0.37270000
C       -0.10650000       0.04880000       0.19590000
C        0.32360000      -0.45120000      -1.18870000
C        1.66390000       0.11720000      -1.56870000
C        1.61250000      -1.04910000      -0.61780000
C        2.29640000      -2.35150000      -0.93550000
C        1.22300000      -0.56740000       0.80760000
C        2.20330000       0.38090000       1.50100000
C        0.89190000      -1.73510000       1.74160000
H        0.35680000       2.18060000      -0.00510000
H       -1.35430000       1.78130000      -0.16830000
H       -0.59550000       1.77650000       1.42780000
H       -0.95610000      -0.53920000       0.55900000
H       -0.34450000      -0.86860000      -1.93460000
H        2.00180000      -0.13130000      -2.57070000
H        1.96500000       1.11070000      -1.24850000
H        2.26400000      -2.55280000      -2.01150000
H        3.35320000      -2.33230000      -0.64060000
H        1.82770000      -3.20000000      -0.42630000
H        2.47910000       1.23470000       0.87730000
H        1.77830000       0.77510000       2.43140000
H        3.12740000      -0.14780000       1.76240000
H        1.79440000      -2.28280000       2.03670000
H        0.41240000      -1.36880000       2.65650000
H        0.20750000      -2.44740000       1.26900000
