14
Properties=species:S:1:pos:R:3 gdb_20375=T pbc="F F F"
C       -0.18320000       1.36920000      -0.27990000
C        1.23300000       1.07530000       0.15760000
C        0.21800000      -0.03230000       0.08960000
N       -0.27970000      -0.64310000       1.29050000
C       -0.55390000      -0.15160000       2.51240000
N       -0.99530000      -1.12620000       3.28020000
N       -0.98620000      -2.23580000       2.50030000
N       -0.56120000      -1.96570000       1.31020000
H       -0.82540000       1.90560000       0.40980000
H       -0.37940000       1.57460000      -1.32580000
H        2.02400000       1.07570000      -0.58330000
H        1.54030000       1.41470000       1.14060000
H        0.30250000      -0.78060000      -0.68670000
H       -0.42830000       0.87810000       2.80240000
