18
Properties=species:S:1:pos:R:3 gdb_82596=T pbc="F F F"
O        0.14630000       1.46250000      -0.13120000
C        0.02720000       0.07400000       0.03560000
C        0.23140000      -0.57720000       1.41920000
C       -0.47590000       0.16600000       2.56420000
C       -1.76730000      -0.54310000       2.12490000
C       -2.45720000       0.11640000       0.91280000
O       -2.61250000       1.50960000       0.84290000
C       -1.38720000      -0.52770000       0.01650000
N       -0.99450000      -1.47870000       1.17480000
H        1.07470000       1.67160000      -0.27420000
H        0.63120000      -0.46990000      -0.70510000
H        1.19190000      -1.05570000       1.62510000
H       -0.13380000      -0.15940000       3.54880000
H       -0.47510000       1.25770000       2.51350000
H       -2.39970000      -0.99440000       2.89320000
H       -3.40850000      -0.40100000       0.72120000
H       -3.41830000       1.74820000       1.31170000
H       -1.72790000      -0.95560000      -0.92780000
