13
Properties=species:S:1:pos:R:3 gdb_18974=T pbc="F F F"
O       -0.05800000       1.50280000       0.02690000
C        1.38000000       1.20600000      -0.01520000
C        1.13750000       0.11910000       1.06600000
O        2.05770000      -0.95750000       1.16170000
C        2.44490000      -1.43110000      -0.04780000
N        2.05720000      -0.99530000      -1.17200000
C        1.11890000       0.10550000      -1.08700000
C        0.00860000       0.03560000       0.00400000
H        2.08520000       2.03510000      -0.02630000
H        0.86990000       0.44910000       2.06720000
H        3.14780000      -2.25290000       0.05370000
H        0.79640000       0.46740000      -2.06220000
H       -0.92090000      -0.53070000       0.01590000
