16
Properties=species:S:1:pos:R:3 gdb_75808=T pbc="F F F"
N        0.17660000       1.35840000      -0.39420000
C        0.10180000      -0.03760000      -0.04480000
C        0.09470000      -0.50010000       1.42930000
O        0.74880000      -0.36240000       2.41120000
O       -1.09360000      -1.18580000       1.29370000
C       -1.27920000      -0.73400000      -0.07870000
C       -2.58210000      -0.00420000      -0.42470000
O       -2.88200000      -0.97060000      -1.45450000
C       -1.73010000      -1.76800000      -1.11510000
H       -0.24270000       1.94330000       0.32160000
H        1.14110000       1.65450000      -0.49050000
H        0.84490000      -0.59510000      -0.62250000
H       -3.32080000      -0.00770000       0.38580000
H       -2.46310000       1.00720000      -0.82910000
H       -1.06230000      -1.92070000      -1.97140000
H       -2.00100000      -2.73760000      -0.67950000
