14
Properties=species:S:1:pos:R:3 gdb_3282=T pbc="F F F"
O       -0.01620000       0.03200000       0.08940000
C        0.00980000       1.22910000      -0.00340000
N       -0.99180000       2.18540000      -0.03350000
C       -0.09070000       3.33890000      -0.01410000
C        0.36290000       3.80820000       1.39820000
C        1.53720000       2.78390000       1.36190000
C        1.09830000       2.32110000      -0.06280000
H       -1.95100000       2.10600000       0.27810000
H       -0.29080000       4.08910000      -0.77980000
H        0.70140000       4.84710000       1.41350000
H       -0.38110000       3.67400000       2.18670000
H        2.51890000       3.26100000       1.36620000
H        1.53360000       2.00020000       2.12220000
H        1.83940000       2.26850000      -0.85740000
