19
Properties=species:S:1:pos:R:3 gdb_30778=T pbc="F F F"
C        0.31840000       0.67220000      -0.67010000
N       -0.35240000       0.30230000       0.57420000
C        0.34050000      -0.56050000       1.43540000
C        0.79920000      -1.83600000       1.17630000
N        0.70820000      -2.70870000       0.07370000
N        1.34710000      -2.27150000       2.38200000
C        1.98880000      -3.54860000       2.60670000
C        1.18640000      -1.26110000       3.27100000
N        0.58310000      -0.21510000       2.73990000
H        0.46120000      -0.21560000      -1.29370000
H       -0.31790000       1.36550000      -1.22740000
H        1.30410000       1.14190000      -0.52230000
H       -0.62100000       1.12380000       1.10240000
H       -0.20230000      -2.64230000      -0.36800000
H        1.41140000      -2.53630000      -0.63880000
H        3.03490000      -3.53990000       2.27920000
H        1.95610000      -3.78480000       3.67230000
H        1.45920000      -4.31990000       2.04440000
H        1.53600000      -1.33530000       4.29040000
