19
Properties=species:S:1:pos:R:3 gdb_87525=T pbc="F F F"
C       -0.00200000       1.57240000      -0.17400000
C       -0.05100000       0.07680000       0.00330000
O        1.21700000      -0.62580000      -0.07400000
C        0.53180000      -0.60850000       1.15070000
C        1.16530000      -0.20390000       2.48830000
C       -0.06440000      -0.02680000       3.40410000
C       -0.81370000      -1.34420000       2.99870000
C        0.22270000      -1.86040000       1.97920000
O        1.48620000      -1.62030000       2.68170000
H        0.81300000       2.00800000       0.40980000
H        0.15460000       1.83000000      -1.22640000
H       -0.94550000       2.02790000       0.14590000
H       -0.85330000      -0.43210000      -0.53450000
H        2.01820000       0.46740000       2.57640000
H        0.22480000      -0.01480000       4.45650000
H       -0.63300000       0.88100000       3.18540000
H       -0.92690000      -2.03750000       3.83400000
H       -1.79670000      -1.16570000       2.55450000
H        0.12540000      -2.85670000       1.55040000
