19
Properties=species:S:1:pos:R:3 gdb_94352=T pbc="F F F"
C       -0.07010000       1.61600000       0.50710000
C        0.01120000       0.14480000       0.10680000
C        1.16290000      -0.21460000      -0.88810000
C        1.97450000      -0.86840000       0.27200000
C        0.72370000      -0.74560000       1.14360000
O        0.73260000      -0.51480000       2.53180000
C        0.17000000      -1.75830000       2.07240000
C       -1.30510000      -1.88690000       2.24200000
O       -1.88310000      -2.94230000       2.30530000
H        0.91060000       2.00310000       0.80390000
H       -0.43330000       2.22170000      -0.32910000
H       -0.74850000       1.75720000       1.35370000
H       -0.97540000      -0.21310000      -0.20160000
H        0.85850000      -0.93310000      -1.65160000
H        1.63770000       0.63760000      -1.37860000
H        2.36280000      -1.87520000       0.10460000
H        2.78650000      -0.23730000       0.64360000
H        0.75100000      -2.65430000       2.28600000
H       -1.83560000      -0.91090000       2.30330000
