14
Properties=species:S:1:pos:R:3 gdb_24509=T pbc="F F F"
O       -0.06290000       1.33010000       0.00990000
C        1.22480000       1.81140000      -0.00010000
C        2.14380000       0.82060000      -0.01420000
C        1.39190000      -0.41100000      -0.01340000
C        0.04250000      -0.02380000       0.00180000
C       -0.98620000      -0.95050000       0.00700000
C       -0.57930000      -2.28150000      -0.00390000
N        0.70000000      -2.69680000      -0.01860000
C        1.66590000      -1.78230000      -0.02320000
H        1.30610000       2.88650000       0.00470000
H        3.21540000       0.94200000      -0.02410000
H       -2.03080000      -0.66640000       0.01870000
H       -1.32930000      -3.06800000      -0.00070000
H        2.68920000      -2.15050000      -0.03510000
