16
Properties=species:S:1:pos:R:3 gdb_46866=T pbc="F F F"
O        0.05600000       0.07940000      -0.45690000
C        0.00740000       1.19840000      -0.01640000
C       -1.30020000       1.79940000       0.53050000
N       -1.30680000       3.23820000       0.76990000
C       -0.11810000       3.76140000       1.38080000
C        0.64080000       2.97490000       2.38050000
C        1.27620000       3.20030000       1.00120000
C        1.28070000       2.09790000       0.02030000
O        2.16770000       1.90100000      -0.77780000
H       -2.10560000       1.54150000      -0.16250000
H       -1.52720000       1.26290000       1.46210000
H       -1.47990000       3.73140000      -0.09910000
H       -0.16130000       4.83580000       1.52510000
H        1.10350000       3.50660000       3.20340000
H        0.32260000       1.97130000       2.63740000
H        2.12700000       3.86950000       0.93980000
