18
Properties=species:S:1:pos:R:3 gdb_62314=T pbc="F F F"
C       -0.06070000       1.59880000       0.02390000
C        0.02430000       0.07050000      -0.06870000
C       -1.08390000      -0.57040000       0.61280000
C       -2.02860000      -1.07710000       1.15680000
C        0.55620000      -0.79450000      -1.17640000
C        1.81680000      -0.36550000      -1.94370000
C        2.40370000       0.94310000      -1.49940000
C        2.48540000      -0.25520000      -0.58930000
N        1.26030000      -0.76670000       0.14650000
H       -0.19240000       2.06620000      -0.95450000
H       -0.92270000       1.86500000       0.63750000
H        0.82630000       2.01840000       0.50260000
H       -2.85310000      -1.53090000       1.64830000
H       -0.00180000      -1.67740000      -1.47530000
H        2.14450000      -0.88950000      -2.83160000
H        3.36470000       1.14240000      -1.96780000
H        1.82940000       1.83650000      -1.31770000
H        3.43090000      -0.64440000      -0.23420000
