19
Properties=species:S:1:pos:R:3 gdb_121490=T pbc="F F F"
C        0.15830000       1.21730000      -0.42320000
C       -0.12070000       0.12970000       0.61780000
N       -1.45180000      -0.43940000       0.51400000
C       -1.73020000      -1.67380000       0.03150000
N       -2.91850000      -2.11160000      -0.13570000
H       -4.51260000      -2.46360000       0.82420000
C       -3.09790000      -3.46440000      -0.62110000
C       -4.23680000      -4.16540000       0.13610000
O       -4.94590000      -3.33860000       0.91820000
O       -4.48240000      -5.33530000       0.02130000
H        1.16440000       1.62650000      -0.28830000
H        0.07880000       0.81730000      -1.43830000
H       -0.55480000       2.04280000      -0.32800000
H        0.59590000      -0.69090000       0.50920000
H        0.02120000       0.53420000       1.62780000
H       -2.24610000       0.15940000       0.68710000
H       -0.83520000      -2.26810000      -0.19610000
H       -3.39600000      -3.45830000      -1.67910000
H       -2.20250000      -4.09760000      -0.54640000
