20
Properties=species:S:1:pos:R:3 gdb_61890=T pbc="F F F"
O        0.23330000       1.41710000       0.24890000
C        0.08930000       0.01400000       0.04630000
C        0.82930000      -0.31090000      -1.25550000
C        0.19630000       0.34370000      -2.46620000
O       -0.01810000      -0.22440000      -3.50710000
C        0.63800000      -0.78890000       1.23800000
C       -0.05420000      -0.42000000       2.52980000
C        0.65670000      -0.41250000       3.82870000
N        0.27040000       0.86300000       3.19520000
H       -0.31950000       1.67190000       0.99630000
H       -0.97760000      -0.23830000      -0.07780000
H        1.85330000       0.07760000      -1.16040000
H        0.88310000      -1.38900000      -1.42810000
H       -0.06340000       1.41420000      -2.32540000
H        0.51020000      -1.86040000       1.03760000
H        1.71590000      -0.59970000       1.32720000
H       -1.12130000      -0.64010000       2.54870000
H        0.12250000      -0.65100000       4.74360000
H        1.70860000      -0.68680000       3.83390000
H        1.08780000       1.26690000       2.74260000
