13
Properties=species:S:1:pos:R:3 gdb_1650=T pbc="F F F"
C        0.02080000       1.43410000      -0.01660000
N       -0.10730000      -0.00300000      -0.11810000
C       -1.25860000      -0.66280000       0.09490000
O       -2.33840000      -0.17480000       0.39650000
C       -1.07600000      -2.18650000      -0.08870000
N       -2.22830000      -2.84720000       0.12450000
O       -0.00110000      -2.67780000      -0.38950000
H        0.74780000       1.71310000       0.75380000
H        0.33720000       1.87140000      -0.96970000
H       -0.95700000       1.83600000       0.25340000
H        0.67950000      -0.59080000      -0.35950000
H       -3.04250000      -2.30420000       0.36790000
H       -2.26660000      -3.84830000       0.04130000
