22
Properties=species:S:1:pos:R:3 gdb_100142=T pbc="F F F"
C       -0.06430000       1.31230000      -0.15900000
O        0.08290000      -0.07860000       0.02410000
C        0.74960000      -0.53870000       1.20800000
C        2.18290000       0.01310000       1.30040000
C       -0.04710000      -0.16900000       2.46940000
C        0.74210000      -2.07300000       1.05360000
C        1.40480000      -2.56660000      -0.24810000
C        1.28410000      -4.01270000      -0.41050000
N        1.18330000      -5.15860000      -0.52350000
H        0.89940000       1.83280000      -0.24580000
H       -0.60970000       1.44220000      -1.09720000
H       -0.64470000       1.78630000       0.64410000
H        2.18690000       1.08070000       1.53690000
H        2.73550000      -0.49730000       2.09510000
H        2.72490000      -0.12400000       0.36060000
H       -1.08340000      -0.50670000       2.37800000
H        0.39410000      -0.64210000       3.35190000
H       -0.04860000       0.91040000       2.64500000
H        1.23820000      -2.52660000       1.91710000
H       -0.29850000      -2.41120000       1.06340000
H        0.93590000      -2.06770000      -1.10090000
H        2.46920000      -2.30980000      -0.27070000
