19
Properties=species:S:1:pos:R:3 gdb_106261=T pbc="F F F"
C       -0.08320000       1.47890000      -0.00630000
C       -0.01080000      -0.02030000      -0.00690000
C        0.61810000      -0.97340000      -1.09560000
C        0.10350000      -1.98060000      -0.01040000
C        0.10500000      -3.48400000       0.01010000
O       -0.67870000      -3.97790000       1.08590000
C        0.68160000      -0.97000000       1.04300000
C       -1.12930000      -1.07020000       0.03660000
O       -2.32080000      -1.16260000       0.10330000
H        0.91550000       1.92640000      -0.03650000
H       -0.64350000       1.84220000      -0.87380000
H       -0.58940000       1.84220000       0.89380000
H        0.14450000      -1.00000000      -2.07970000
H        1.70690000      -0.90560000      -1.17020000
H       -0.25340000      -3.86210000      -0.96110000
H        1.11560000      -3.87970000       0.15790000
H       -1.57340000      -3.63890000       0.96530000
H        1.77330000      -0.90620000       1.04800000
H        0.26900000      -1.00050000       2.05290000
