15
Properties=species:S:1:pos:R:3 gdb_34430=T pbc="F F F"
C       -0.01090000      -1.18350000       0.03890000
C       -0.00410000       0.01880000       0.03280000
C       -0.01890000       1.45260000       0.05080000
C       -0.90530000       2.18700000       1.05750000
O       -0.62880000       3.56690000       0.74490000
C        0.29360000       3.47240000      -0.30210000
C        1.30220000       2.30640000      -0.08530000
O        1.36900000       2.06680000      -1.52380000
C       -0.04940000       2.30750000      -1.27630000
H       -0.00730000      -2.24550000       0.03380000
H       -1.97070000       1.97480000       0.91740000
H       -0.63240000       1.97370000       2.09660000
H        0.62010000       4.44100000      -0.67180000
H        2.21870000       2.23890000       0.49940000
H       -0.74500000       2.24120000      -2.11190000
