15
Properties=species:S:1:pos:R:3 gdb_25578=T pbc="F F F"
O       -0.22990000       0.21220000       0.50590000
C        0.04900000       1.13030000      -0.21690000
C        1.36900000       1.87110000      -0.14220000
O        1.34370000       2.88170000      -1.14610000
C        2.44810000       3.64170000      -1.21040000
N        3.52050000       3.56080000      -0.47040000
C        4.34650000       4.56800000      -0.94800000
C        3.75170000       5.24090000      -1.97320000
N        2.51340000       4.63080000      -2.13920000
H       -0.64370000       1.50990000      -1.00040000
H        1.50290000       2.31090000       0.85350000
H        2.20390000       1.17850000      -0.30380000
H        5.31990000       4.73860000      -0.51560000
H        4.06410000       6.06660000      -2.58930000
H        1.79860000       4.86310000      -2.80700000
