15
Properties=species:S:1:pos:R:3 gdb_6432=T pbc="F F F"
C       -0.00010000       1.62790000       0.05590000
C       -0.00380000       0.10780000       0.06330000
C        0.64090000      -0.60500000      -1.18120000
C        1.70070000      -1.14440000      -0.19160000
O        2.68850000      -1.81880000      -0.26380000
N        1.05520000      -0.53650000       0.86250000
C       -1.36830000      -0.47780000       0.39900000
O       -2.38110000       0.16040000       0.51110000
H        0.98610000       2.00700000      -0.22430000
H       -0.74400000       2.00370000      -0.65080000
H       -0.26090000       2.02250000       1.04230000
H        0.03670000      -1.38310000      -1.65330000
H        1.02090000       0.07920000      -1.94090000
H        1.30600000      -0.44240000       1.83690000
H       -1.34810000      -1.58310000       0.53970000
