17
Properties=species:S:1:pos:R:3 gdb_128324=T pbc="F F F"
C       -0.08060000       1.41260000       0.07640000
N       -0.02080000      -0.02070000      -0.16810000
C       -1.20600000      -0.73670000      -0.09320000
N       -2.40090000      -0.16130000      -0.07320000
N       -3.27950000      -1.21920000      -0.01820000
C       -2.65700000      -2.42310000      -0.03290000
N       -3.34170000      -3.63990000      -0.06210000
C       -1.30530000      -2.15450000      -0.06980000
O       -0.28660000      -3.08100000       0.01140000
H        0.92420000       1.83080000      -0.02290000
H       -0.72800000       1.87830000      -0.67050000
H       -0.48310000       1.67040000       1.06710000
H        0.72770000      -0.48810000       0.32550000
H       -4.25400000      -1.04480000      -0.18710000
H       -4.00900000      -3.73550000       0.69600000
H       -2.67840000      -4.40460000      -0.00860000
H        0.16300000      -3.11710000      -0.84070000
