18
Properties=species:S:1:pos:R:3 gdb_78257=T pbc="F F F"
C       -0.63280000       1.45420000       0.37640000
N       -0.11060000       0.11800000       0.14100000
C        0.27760000      -0.30640000      -1.19290000
C        1.60320000       0.22670000      -1.66310000
O        2.10420000       1.49560000      -1.34560000
C        1.61300000      -0.86740000      -0.64790000
C        1.15360000      -0.38270000       0.74300000
C        2.08660000       0.56000000       1.48340000
O        2.70420000       0.20950000       2.45950000
H        0.01670000       2.27340000       0.03710000
H       -1.59490000       1.54520000      -0.14000000
H       -0.82280000       1.58340000       1.44730000
H       -0.45530000      -0.74660000      -1.86350000
H        1.88130000      -0.13380000      -2.65590000
H        1.67550000       2.13870000      -1.92080000
H        2.09050000      -1.82250000      -0.81970000
H        0.95650000      -1.22540000       1.41540000
H        2.18510000       1.57920000       1.06740000
