17
Properties=species:S:1:pos:R:3 gdb_94308=T pbc="F F F"
O        0.35400000       1.19170000      -0.44010000
C        0.15210000      -0.05410000       0.17350000
C       -0.14270000      -0.13430000       1.70140000
C       -1.23970000      -1.18960000       1.37880000
C       -1.23300000      -0.66860000      -0.06820000
C       -2.37010000       0.20090000      -0.63010000
C       -2.42920000      -0.87460000      -1.71270000
O       -3.05830000      -1.11700000      -2.69020000
O       -1.39990000      -1.61080000      -1.17240000
H        1.28460000       1.42630000      -0.37850000
H        0.92210000      -0.78350000      -0.11310000
H        0.67260000      -0.43260000       2.36200000
H       -0.57200000       0.80720000       2.05290000
H       -0.85750000      -2.21240000       1.42500000
H       -2.18300000      -1.13530000       1.92470000
H       -3.27080000       0.27980000      -0.01890000
H       -2.06840000       1.18390000      -0.99290000
