17
Properties=species:S:1:pos:R:3 gdb_89937=T pbc="F F F"
C        0.27410000       1.59120000      -0.04310000
C        0.02450000       0.11060000       0.09820000
O        0.80200000      -0.69610000      -0.85160000
C        1.25870000      -1.57990000       0.18020000
C        2.64280000      -1.20160000       0.76530000
N        1.99160000      -0.19610000       1.65220000
C        0.64050000      -0.66810000       1.28460000
C        0.94960000      -2.97640000      -0.05830000
N        0.71030000      -4.09640000      -0.21700000
H        1.31430000       1.82480000       0.19190000
H        0.05120000       1.91110000      -1.06540000
H       -0.37680000       2.15030000       0.63780000
H       -1.03970000      -0.13110000      -0.02420000
H        3.11420000      -2.03620000       1.29600000
H        3.34240000      -0.78020000       0.03810000
H        2.21090000      -0.31780000       2.63240000
H       -0.01130000      -1.00530000       2.09030000
