18
Properties=species:S:1:pos:R:3 gdb_127505=T pbc="F F F"
C        0.02430000       1.38910000      -0.07210000
N        0.01810000      -0.04910000       0.01140000
N        0.04650000      -0.80730000      -1.12880000
C        0.04000000      -2.05070000      -0.68050000
O        0.05150000      -3.10950000      -1.52290000
C        0.03540000      -2.15040000       0.72810000
C        0.04810000      -3.38430000       1.57250000
C        0.02960000      -0.82090000       1.12780000
N       -0.03150000      -0.24460000       2.40340000
H        1.04030000       1.79660000      -0.15660000
H       -0.54320000       1.68830000      -0.95510000
H       -0.45180000       1.79750000       0.82270000
H        0.08120000      -2.75140000      -2.41890000
H        0.53400000      -3.20350000       2.53920000
H       -0.95760000      -3.77130000       1.78130000
H        0.60160000      -4.18590000       1.07450000
H       -0.13020000      -0.95240000       3.11970000
H        0.77350000       0.33200000       2.62350000
