23
Properties=species:S:1:pos:R:3 gdb_118846=T pbc="F F F"
C       -0.27820000       1.53020000      -0.21070000
C       -0.26820000       0.00890000      -0.38120000
C        1.09540000      -0.52060000      -0.85330000
C        1.10160000      -2.01910000      -1.11370000
C        0.94750000      -2.89910000       0.11250000
O        0.31150000      -2.44920000      -2.24190000
C        1.73950000      -2.61860000      -2.30410000
C        2.42900000      -1.89170000      -3.43200000
O        2.12930000      -2.50930000      -4.67480000
H        0.46090000       1.85260000       0.53150000
H       -0.04110000       2.03640000      -1.15310000
H       -1.25860000       1.88650000       0.12030000
H       -0.54790000      -0.46280000       0.56800000
H       -1.02840000      -0.29070000      -1.11210000
H        1.37870000       0.01710000      -1.76220000
H        1.86320000      -0.29180000      -0.10210000
H        0.00990000      -2.68600000       0.63440000
H        0.94280000      -3.95440000      -0.17000000
H        1.76990000      -2.72920000       0.81580000
H        2.05310000      -3.66200000      -2.22030000
H        2.15510000      -0.82910000      -3.44320000
H        3.51580000      -1.95930000      -3.31050000
H        1.16820000      -2.51690000      -4.75160000
