16
Properties=species:S:1:pos:R:3 gdb_29765=T pbc="F F F"
C       -0.03410000       1.46390000       0.00220000
N        0.00670000       0.01640000       0.00100000
C        0.07020000      -0.76860000      -1.14110000
C        0.09830000      -2.09030000      -0.75640000
N        0.23170000      -3.22270000      -1.55770000
C        0.04740000      -2.09880000       0.67900000
C       -0.00530000      -0.77440000       1.09730000
C        0.03650000      -3.25310000       1.49000000
N        0.02040000      -4.22990000       2.11630000
H        0.86700000       1.87910000      -0.46060000
H       -0.90950000       1.82770000      -0.54540000
H       -0.09370000       1.81850000       1.03220000
H        0.09910000      -0.31850000      -2.11960000
H       -0.18310000      -3.13250000      -2.47440000
H       -0.08770000      -4.06940000      -1.10570000
H       -0.05680000      -0.36490000       2.09270000
