18
Properties=species:S:1:pos:R:3 gdb_7978=T pbc="F F F"
C       -0.48370000       1.51470000      -0.01380000
C        0.10790000       0.11890000      -0.08310000
O        1.22310000       0.11790000      -1.01530000
C        2.14970000      -0.70350000      -0.45290000
N        3.25040000      -0.91370000      -1.24060000
N        1.96010000      -1.15030000       0.72660000
C        0.73090000      -0.50140000       1.21040000
C        1.05560000       0.48080000       2.34020000
H        0.24470000       2.23920000       0.35810000
H       -0.81330000       1.83680000      -1.00560000
H       -1.35330000       1.52340000       0.65070000
H       -0.63860000      -0.57470000      -0.49180000
H        3.07820000      -0.89210000      -2.23390000
H        3.83110000      -1.67650000      -0.92880000
H        0.04990000      -1.26380000       1.60640000
H        1.72870000       1.27290000       1.99770000
H        0.15110000       0.94360000       2.74850000
H        1.56070000      -0.05710000       3.14660000
