17
Properties=species:S:1:pos:R:3 gdb_77257=T pbc="F F F"
C       -0.16270000       1.44610000       0.65200000
C        0.11830000       0.01230000       0.26570000
C        0.31940000      -0.41020000      -1.16890000
C        0.30110000       0.59510000      -2.20160000
N        0.30590000       1.39790000      -3.03500000
N        1.41880000      -0.45330000      -0.18880000
C        2.54540000       0.46320000      -0.31030000
C        3.76670000      -0.28110000      -0.84180000
O        4.75790000       0.27060000      -1.23620000
H        0.25940000       1.66220000       1.63900000
H        0.24300000       2.16350000      -0.06380000
H       -1.24330000       1.60640000       0.71150000
H       -0.38800000      -0.72250000       0.89060000
H       -0.03460000      -1.38290000      -1.49930000
H        2.37390000       1.34510000      -0.94110000
H        2.80330000       0.82440000       0.69370000
H        3.66790000      -1.38880000      -0.81320000
