18
Properties=species:S:1:pos:R:3 gdb_50729=T pbc="F F F"
N        0.97140000      -0.24850000       0.09580000
C       -0.19620000       0.20950000       0.31950000
N       -1.31830000      -0.49140000      -0.10430000
C       -1.08240000      -1.76160000      -0.80020000
C       -2.36180000      -2.28040000      -1.43830000
C       -3.48590000      -2.12660000      -0.43380000
O       -3.65980000      -0.74160000      -0.11300000
C       -2.58380000       0.04080000       0.16040000
N       -2.72360000       1.21570000       0.62340000
H        1.66810000       0.38890000       0.47590000
H       -0.45880000       1.13410000       0.83160000
H       -0.29020000      -1.59760000      -1.53430000
H       -0.68780000      -2.49040000      -0.08070000
H       -2.60930000      -1.71220000      -2.34160000
H       -2.23440000      -3.32840000      -1.72450000
H       -4.45230000      -2.45050000      -0.82570000
H       -3.27620000      -2.69410000       0.48360000
H       -3.71000000       1.39940000       0.78960000
