17
Properties=species:S:1:pos:R:3 gdb_44637=T pbc="F F F"
O        0.16380000       0.11440000      -0.81600000
C        0.08640000       1.17950000      -0.27640000
C       -1.05890000       1.94530000       0.41920000
C       -0.07550000       3.12250000       0.65840000
C        0.74430000       3.06400000       1.98560000
O        0.46010000       1.93300000       2.83370000
C        1.58090000       1.18380000       2.28750000
C        1.89600000       2.30670000       1.28170000
C        1.08350000       2.33470000      -0.06050000
H       -1.87870000       2.17420000      -0.26880000
H       -1.46190000       1.46460000       1.31370000
H       -0.39400000       4.11170000       0.33210000
H        0.85430000       3.99340000       2.55070000
H        2.35620000       1.03280000       3.04780000
H        1.27830000       0.21180000       1.88290000
H        2.92140000       2.66740000       1.22500000
H        1.62280000       2.69090000      -0.93910000
