20
Properties=species:S:1:pos:R:3 gdb_55866=T pbc="F F F"
C       -0.41520000       1.50060000       0.06360000
C        0.19230000       0.11880000      -0.01960000
O       -0.48030000      -0.74000000      -0.90740000
C        1.68650000      -0.08050000       0.11090000
C        0.72780000      -0.60620000       1.17970000
C        0.69620000      -0.03560000       2.58140000
C        1.66460000      -0.66360000       3.59090000
N        2.79930000      -1.20320000       3.06120000
O        1.44220000      -0.64670000       4.78540000
H        0.11240000       2.14220000       0.77350000
H       -0.37290000       1.99390000      -0.91530000
H       -1.46580000       1.43910000       0.36460000
H       -0.39340000      -0.37320000      -1.79480000
H        2.14910000      -0.79920000      -0.55700000
H        2.29910000       0.78240000       0.35610000
H        0.54630000      -1.67630000       1.12620000
H        0.92010000       1.03800000       2.56800000
H       -0.29910000      -0.13350000       3.02490000
H        2.96430000      -1.23060000       2.07060000
H        3.46890000      -1.61470000       3.68990000
