13
Properties=species:S:1:pos:R:3 gdb_128956=T pbc="F F F"
N       -0.05070000      -1.09190000      -0.00450000
C       -0.00690000       0.06140000       0.00240000
C       -0.00440000       1.52400000       0.01170000
O        1.34870000       1.96630000      -0.00110000
C        1.50170000       3.30240000       0.00570000
N        0.49250000       4.16630000       0.02290000
N        1.12610000       5.34290000       0.02310000
N        2.44650000       5.30290000       0.00760000
C        2.72410000       4.00030000      -0.00390000
H       -0.54540000       1.90340000      -0.86370000
H       -0.52500000       1.89210000       0.90400000
H        0.61940000       6.21230000       0.03450000
H        3.73440000       3.62870000      -0.01790000
