19
Properties=species:S:1:pos:R:3 gdb_56983=T pbc="F F F"
C       -0.02150000       1.54720000       0.00440000
C       -0.00760000       0.01440000      -0.10330000
C        0.78110000      -0.41290000      -1.27030000
N        1.39070000      -0.74850000      -2.19240000
N        0.57780000      -0.57770000       1.09680000
C       -0.19980000      -0.51440000       2.37380000
C       -0.03510000      -2.02630000       2.53970000
C       -0.65520000      -2.72540000       1.35710000
C        0.67510000      -2.03600000       1.19700000
H        0.99340000       1.92230000       0.15260000
H       -0.44220000       1.99460000      -0.89920000
H       -0.63520000       1.85040000       0.85700000
H       -1.04220000      -0.33340000      -0.28370000
H        0.30950000       0.09630000       3.12470000
H       -1.23700000      -0.16520000       2.27200000
H        0.23730000      -2.53200000       3.45540000
H       -0.60280000      -3.80920000       1.37800000
H       -1.55810000      -2.33200000       0.89640000
H        1.57400000      -2.54710000       0.87370000
