18
Properties=species:S:1:pos:R:3 gdb_15070=T pbc="F F F"
C       -0.02840000       1.51000000       0.15690000
C        0.03790000      -0.01270000       0.00610000
C        0.69560000      -0.46500000      -1.30920000
C        2.16870000      -0.06610000      -1.35030000
O        2.76500000       0.22390000      -2.35510000
C        0.58820000      -1.97390000      -1.49400000
C        1.43250000      -2.73200000      -2.42260000
O        1.68230000      -2.76340000      -1.01090000
H        0.96900000       1.96290000       0.13810000
H       -0.60820000       1.96110000      -0.65570000
H       -0.50040000       1.79160000       1.10250000
H        0.59040000      -0.45160000       0.84710000
H       -0.97390000      -0.43180000       0.05600000
H        0.20290000       0.01770000      -2.16300000
H        2.67740000      -0.07600000      -0.36130000
H       -0.39370000      -2.38520000      -1.25170000
H        1.05650000      -3.66210000      -2.84530000
H        2.17950000      -2.20920000      -3.01580000
