18
Properties=species:S:1:pos:R:3 gdb_10884=T pbc="F F F"
C       -0.08210000       1.57720000       0.00310000
C       -0.03750000       0.06150000      -0.02240000
C        1.22030000      -0.64630000      -0.58570000
O        1.99260000      -0.22010000       0.59870000
C        0.68720000      -0.69160000       1.14330000
C        0.45890000      -0.62510000       2.61950000
C        0.85360000      -1.92690000       0.22520000
O       -0.30030000      -2.67270000      -0.04590000
H        0.88310000       1.98730000       0.30890000
H       -0.33110000       1.97640000      -0.98620000
H       -0.84900000       1.93470000       0.69930000
H       -0.98440000      -0.39180000      -0.32480000
H        1.70460000      -0.54390000      -1.55810000
H        0.44560000       0.41230000       2.96710000
H       -0.50240000      -1.08660000       2.86650000
H        1.24850000      -1.16100000       3.15520000
H        1.72560000      -2.54040000       0.47800000
H       -0.08050000      -3.34980000      -0.69300000
