24
Properties=species:S:1:pos:R:3 gdb_117936=T pbc="F F F"
C       -0.14450000       1.43220000      -0.46760000
C       -0.02870000      -0.03930000      -0.05820000
C       -1.39690000      -0.71260000       0.09780000
C       -1.34610000      -2.22290000       0.41940000
C       -0.70260000      -2.52710000       1.78040000
C       -2.78030000      -2.75930000       0.41610000
O       -3.58580000      -2.44550000       1.27720000
N       -3.09210000      -3.58950000      -0.62270000
C       -4.41140000      -4.16470000      -0.79540000
H        0.84130000       1.89590000      -0.57300000
H       -0.66740000       1.53790000      -1.42470000
H       -0.70510000       2.00630000       0.27840000
H        0.56210000      -0.58270000      -0.80840000
H        0.53320000      -0.10750000       0.88040000
H       -1.97680000      -0.21450000       0.88390000
H       -1.96420000      -0.57300000      -0.83280000
H       -0.76700000      -2.72380000      -0.36930000
H       -0.66140000      -3.60580000       1.96210000
H        0.31800000      -2.14040000       1.83540000
H       -1.29770000      -2.07630000       2.57880000
H       -2.37540000      -3.80950000      -1.29330000
H       -4.37620000      -5.25980000      -0.77620000
H       -5.02560000      -3.81280000       0.03430000
H       -4.86790000      -3.84610000      -1.73950000
