17
Properties=species:S:1:pos:R:3 gdb_115030=T pbc="F F F"
N       -0.18230000       1.56930000      -0.26420000
C        0.00270000       0.11400000      -0.21210000
C       -1.35350000      -0.55370000       0.05970000
N       -2.35930000      -0.11480000      -0.91720000
C       -2.48130000      -1.13620000      -1.83540000
N       -1.99750000      -2.28260000      -1.53420000
C       -1.40080000      -2.10280000      -0.19000000
C       -0.09970000      -2.76890000      -0.07540000
N        0.93040000      -3.27890000       0.04140000
H       -0.28250000       1.94490000       0.67470000
H        0.63940000       2.01170000      -0.66170000
H        0.36990000      -0.21620000      -1.19000000
H        0.73150000      -0.22710000       0.53720000
H       -1.68100000      -0.31700000       1.07710000
H       -2.23290000       0.83630000      -1.24500000
H       -3.01740000      -0.95530000      -2.76260000
H       -2.06730000      -2.57020000       0.54710000
