20
Properties=species:S:1:pos:R:3 gdb_110383=T pbc="F F F"
C       -0.25370000       1.53910000       0.01230000
C       -0.03940000       0.04120000      -0.06750000
C        0.92500000      -0.58060000      -1.07920000
C        2.13240000      -0.19700000      -0.17090000
C        2.69470000      -1.62570000      -0.13030000
C        3.50640000      -2.06600000       1.07760000
O        3.66090000      -3.48020000       1.13120000
C        1.16320000      -1.75690000      -0.08940000
N        1.02180000      -0.54190000       0.87050000
H        0.67920000       2.09650000      -0.11450000
H       -0.95060000       1.86850000      -0.76590000
H       -0.68080000       1.81110000       0.98310000
H       -0.99300000      -0.49040000       0.05030000
H        0.89410000      -0.62010000      -2.17410000
H        2.66730000       0.75230000      -0.12220000
H        3.15330000      -1.97030000      -1.06340000
H        4.52240000      -1.66130000       1.00930000
H        3.05060000      -1.67210000       1.99570000
H        2.79850000      -3.85840000       1.32910000
H        0.52940000      -2.63680000       0.04780000
