16
Properties=species:S:1:pos:R:3 gdb_127646=T pbc="F F F"
C        0.28550000       1.33140000       0.16140000
N        0.09460000      -0.10480000       0.09570000
N       -0.01620000      -0.70690000      -1.10580000
C       -0.17910000      -1.99800000      -0.83080000
C       -0.17380000      -2.23920000       0.55550000
C        0.00430000      -0.99280000       1.12380000
C        0.07190000      -0.59220000       2.57010000
C        1.36930000      -0.03090000       2.96570000
N        2.38750000       0.42760000       3.26240000
H        1.21150000       1.57920000       0.68750000
H        0.33970000       1.69140000      -0.86480000
H       -0.55530000       1.81700000       0.66830000
H       -0.29360000      -2.70600000      -1.63800000
H       -0.28060000      -3.17790000       1.07520000
H       -0.70390000       0.14340000       2.81950000
H       -0.12730000      -1.47320000       3.18720000
