16
Properties=species:S:1:pos:R:3 gdb_133054=T pbc="F F F"
O        0.16240000       1.07870000       0.86900000
C       -0.03980000       0.14540000      -0.17970000
C       -1.43900000      -0.41800000      -0.09310000
C       -2.12820000      -0.44630000       1.12050000
C       -3.40230000      -1.00110000       1.20360000
C       -3.97910000      -1.53420000       0.06040000
F       -5.20410000      -2.06990000       0.13390000
C       -3.32000000      -1.51990000      -1.16080000
C       -2.05070000      -0.95410000      -1.22810000
H        1.09890000       1.29310000       0.90140000
H        0.10380000       0.61440000      -1.16620000
H        0.69070000      -0.67840000      -0.11150000
H       -1.66230000      -0.01830000       1.99920000
H       -3.95080000      -1.02410000       2.13810000
H       -3.80470000      -1.93700000      -2.03550000
H       -1.53220000      -0.92870000      -2.18230000
