15
Properties=species:S:1:pos:R:3 gdb_9197=T pbc="F F F"
N        0.25250000       1.35840000      -0.00350000
C       -0.01190000      -0.06720000       0.04450000
C       -1.48620000      -0.45700000      -0.02990000
O       -2.40610000       0.31680000      -0.12010000
O       -1.63200000      -1.79690000       0.01900000
C       -2.99750000      -2.26250000      -0.04480000
C       -3.00090000      -3.71320000       0.01780000
C       -3.03840000      -4.91210000       0.06730000
H       -0.14810000       1.74300000      -0.85460000
H       -0.25210000       1.81620000       0.75060000
H        0.51030000      -0.57420000      -0.77520000
H        0.40130000      -0.49540000       0.96520000
H       -3.56520000      -1.82660000       0.78430000
H       -3.45720000      -1.90250000      -0.97150000
H       -3.06870000      -5.97290000       0.11120000
