16
Properties=species:S:1:pos:R:3 gdb_23473=T pbc="F F F"
O       -0.04930000       1.33200000       0.06130000
N        0.04090000      -0.06220000       0.10280000
C       -1.10090000      -0.62780000       0.02070000
C       -2.45430000       0.04260000      -0.06600000
O       -3.36330000      -0.58410000       0.82630000
C       -3.64950000      -1.93290000       0.50340000
C       -2.40920000      -2.78030000       0.26420000
O       -1.84830000      -2.70910000      -1.04820000
C       -1.11550000      -2.10890000       0.03810000
H        0.86880000       1.60030000       0.17480000
H       -2.37960000       1.08530000       0.24010000
H       -2.82450000       0.00280000      -1.10270000
H       -4.21280000      -2.32700000       1.35420000
H       -4.28880000      -1.99370000      -0.39260000
H       -2.41210000      -3.78130000       0.69470000
H       -0.17880000      -2.59600000       0.29650000
