17
Properties=species:S:1:pos:R:3 gdb_60871=T pbc="F F F"
C        0.34930000       1.55650000      -0.15580000
C        0.00890000       0.06690000       0.05480000
C        0.38730000      -0.69000000      -1.20890000
O       -0.41090000      -1.15320000      -1.98240000
C        0.72430000      -0.48530000       1.29120000
C        1.25730000      -1.86360000       1.32620000
O        2.13070000      -0.75470000       1.12520000
C        0.35500000       0.14070000       2.54050000
C        0.01240000       0.67160000       3.56300000
H        1.41980000       1.68610000      -0.34350000
H       -0.20500000       1.96040000      -1.00700000
H        0.08790000       2.13300000       0.73510000
H       -1.06980000      -0.05250000       0.19660000
H        1.48130000      -0.75070000      -1.39610000
H        1.35570000      -2.36890000       2.28460000
H        1.11060000      -2.51460000       0.46470000
H       -0.27840000       1.13500000       4.47370000
