21
Properties=species:S:1:pos:R:3 gdb_116079=T pbc="F F F"
C       -0.08720000       1.56280000      -0.05880000
C       -0.03150000       0.03370000       0.01660000
C        0.73630000      -0.51770000       1.22640000
C        0.64250000      -2.04820000       1.31060000
N        1.53830000      -2.63450000       2.30010000
C        2.93160000      -2.31270000       1.99960000
C        3.22520000      -0.86840000       1.58490000
O        4.35570000      -0.41630000       1.58080000
N        2.14550000      -0.13290000       1.17950000
H        0.90490000       2.00670000      -0.19610000
H       -0.69870000       1.88680000      -0.90600000
H       -0.52380000       1.99100000       0.85020000
H       -1.05440000      -0.36030000       0.06570000
H        0.42010000      -0.37040000      -0.89770000
H        0.27630000      -0.09960000       2.13940000
H       -0.38970000      -2.33290000       1.53830000
H        0.89240000      -2.48010000       0.33210000
H        1.30040000      -2.28000000       3.22190000
H        3.56560000      -2.54080000       2.85940000
H        3.27980000      -2.95470000       1.17860000
H        2.37210000       0.82850000       0.96590000
