23
Properties=species:S:1:pos:R:3 gdb_76223=T pbc="F F F"
C       -0.18300000       1.52810000       0.01520000
C        0.01900000       0.00550000      -0.00690000
C        0.81360000      -0.52040000      -1.19910000
C        0.47180000      -0.14300000      -2.60650000
C        1.79680000      -1.33620000      -0.80150000
C        1.88640000      -1.43460000       0.68180000
C        2.21200000      -0.12910000       1.38910000
C        0.77150000      -0.55090000       1.21500000
C       -0.03850000      -0.91420000       2.43670000
H        0.77560000       2.05620000       0.02410000
H       -0.74730000       1.86940000      -0.85870000
H       -0.74180000       1.83140000       0.90680000
H       -0.98440000      -0.45170000      -0.03110000
H        0.59540000       0.93300000      -2.78260000
H        1.10300000      -0.67300000      -3.32530000
H       -0.57630000      -0.37580000      -2.83810000
H        2.48410000      -1.84640000      -1.46880000
H        2.15650000      -2.37200000       1.15760000
H        2.61260000      -0.18810000       2.39690000
H        2.62100000       0.67650000       0.78810000
H       -0.51410000      -0.02990000       2.87900000
H       -0.83350000      -1.62780000       2.18930000
H        0.58830000      -1.36900000       3.21050000
