18
Properties=species:S:1:pos:R:3 gdb_116270=T pbc="F F F"
O        0.00530000       1.47240000      -0.16010000
C        0.07330000       0.06370000      -0.08980000
C       -1.31970000      -0.53610000       0.04470000
O       -2.05710000      -0.16840000      -1.11390000
C       -3.14560000      -1.06990000      -1.21840000
C       -2.53730000      -2.44490000      -0.91030000
C       -1.43110000      -2.10160000       0.13520000
C       -0.18280000      -2.81310000      -0.12550000
N        0.80080000      -3.38550000      -0.32970000
H       -0.58220000       1.68230000      -0.89510000
H        0.56770000      -0.37000000      -0.97140000
H        0.67620000      -0.18590000       0.78860000
H       -1.80560000      -0.10890000       0.93530000
H       -3.93390000      -0.81420000      -0.49210000
H       -3.56010000      -0.99010000      -2.22550000
H       -3.26160000      -3.16350000      -0.52260000
H       -2.08250000      -2.86650000      -1.80870000
H       -1.75560000      -2.37590000       1.14270000
