21
Properties=species:S:1:pos:R:3 gdb_101113=T pbc="F F F"
C       -0.20870000       1.64950000      -0.01790000
C       -0.03930000       0.12390000      -0.03310000
C       -1.38550000      -0.59130000       0.12810000
O       -1.95600000      -0.19480000       1.36640000
C        0.67570000      -0.38460000      -1.26140000
C        1.50590000      -1.66050000      -1.27960000
C        2.12990000      -0.35930000      -1.67720000
O        1.82780000      -0.05520000      -3.04020000
C        0.41160000       0.00960000      -2.71940000
H        0.75990000       2.15250000      -0.09610000
H       -0.83290000       1.99060000      -0.85160000
H       -0.69440000       1.96360000       0.90810000
H        0.56670000      -0.15870000       0.83870000
H       -2.04520000      -0.32780000      -0.71620000
H       -1.22540000      -1.67980000       0.09360000
H       -2.81570000      -0.61630000       1.45260000
H        1.77590000      -2.03180000      -0.29500000
H        1.35000000      -2.42550000      -2.03610000
H        3.01880000       0.08290000      -1.24090000
H       -0.18710000      -0.67510000      -3.33260000
H        0.04280000       1.03340000      -2.84400000
