14
Properties=species:S:1:pos:R:3 gdb_23925=T pbc="F F F"
F       -0.33710000      -0.03960000       0.17680000
C       -0.09260000       1.28170000       0.10480000
F        1.24080000       1.43820000       0.18260000
F       -0.48290000       1.69920000      -1.10800000
C       -0.79020000       2.06050000       1.20720000
C       -2.25730000       1.61960000       1.45000000
C       -1.71840000       0.86250000       2.69180000
N       -0.45160000       1.62990000       2.57420000
H       -0.60570000       3.12180000       1.00500000
H       -2.90520000       2.46010000       1.69890000
H       -2.72120000       1.02180000       0.66600000
H       -2.24350000       1.02320000       3.63810000
H       -1.61730000      -0.21460000       2.51780000
H        0.41230000       1.10720000       2.67000000
