17
Properties=species:S:1:pos:R:3 gdb_27053=T pbc="F F F"
C        1.03790000       0.90820000      -0.52670000
C        0.23780000      -0.31170000      -0.21770000
C       -0.48420000      -1.22870000      -0.95340000
N       -0.72410000      -1.36970000      -2.32790000
C        0.07950000      -1.09160000      -3.39660000
N        1.20320000      -0.48700000      -3.32890000
N       -1.12480000      -2.13620000      -0.14020000
C       -0.79680000      -1.79810000       1.08430000
N        0.02180000      -0.71620000       1.09300000
H        1.39910000       0.84990000      -1.55460000
H        0.44550000       1.82530000      -0.41080000
H        1.90240000       0.98940000       0.14350000
H       -1.49220000      -1.99830000      -2.50440000
H       -0.37990000      -1.44680000      -4.32710000
H        1.59800000      -0.38600000      -4.26040000
H       -1.11510000      -2.29850000       1.98610000
H        0.42160000      -0.27250000       1.90300000
