21
Properties=species:S:1:pos:R:3 gdb_91809=T pbc="F F F"
C        0.09010000       1.62190000      -0.06040000
C        0.04570000       0.09690000      -0.05950000
C        0.79160000      -0.58330000      -1.24250000
C        1.26340000      -1.91250000      -0.68050000
O        2.40820000      -1.78380000       0.18730000
C        1.10250000      -1.94470000       0.78350000
C        0.89960000      -3.16880000       1.62860000
C        0.59910000      -0.56230000       1.24170000
O        1.63850000       0.16350000       1.87090000
H        1.11680000       1.98030000       0.05100000
H       -0.31720000       2.02400000      -0.99390000
H       -0.49250000       2.03600000       0.76870000
H       -1.00220000      -0.22570000      -0.12740000
H        0.13730000      -0.71920000      -2.10900000
H        1.65480000       0.00380000      -1.57690000
H        1.26270000      -2.81530000      -1.28750000
H        1.35140000      -4.04560000       1.15770000
H        1.35800000      -3.03070000       2.61360000
H       -0.16810000      -3.36130000       1.77880000
H       -0.19590000      -0.65520000       1.98880000
H        2.43960000      -0.05550000       1.37440000
