11
Properties=species:S:1:pos:R:3 gdb_4639=T pbc="F F F"
O       -0.01460000      -0.06070000      -0.00010000
C       -0.03480000       1.15240000       0.01020000
C        1.16990000       1.95900000       0.00260000
C        1.34460000       3.29890000       0.01130000
O        2.66380000       3.60270000      -0.00170000
C        3.40180000       2.39710000      -0.01980000
O        4.59440000       2.35370000      -0.03420000
N        2.45140000       1.41050000      -0.01670000
H       -0.98000000       1.73100000       0.02560000
H        0.64330000       4.11670000       0.02600000
H        2.65390000       0.42500000      -0.02700000
