15
Properties=species:S:1:pos:R:3 gdb_51713=T pbc="F F F"
O       -0.71900000       0.84840000       0.73150000
C        0.04840000       0.97390000      -0.18630000
C        1.31810000       1.80630000      -0.11780000
C        1.37180000       2.88300000      -1.18930000
O        2.59390000       3.58160000      -1.11190000
C        2.94510000       3.94120000      -2.43440000
C        2.20720000       2.93500000      -3.30950000
O        2.32950000       2.70450000      -4.47220000
O        1.31860000       2.29530000      -2.49540000
H       -0.12320000       0.46940000      -1.16050000
H        1.39100000       2.27100000       0.86810000
H        2.18190000       1.14770000      -0.27200000
H        0.52110000       3.57820000      -1.10510000
H        2.62450000       4.96150000      -2.69290000
H        4.02630000       3.86540000      -2.56630000
