15
Properties=species:S:1:pos:R:3 gdb_84311=T pbc="F F F"
O        0.03130000       1.43370000      -0.16210000
C        0.03140000       0.02020000      -0.00440000
C        0.57040000      -0.43090000       1.33830000
C       -0.25040000      -1.26830000       1.97810000
C       -1.48450000      -1.48490000       1.18590000
O       -2.38530000      -2.24900000       1.42340000
C       -1.41510000      -0.52240000      -0.03200000
C       -2.45920000       0.57720000       0.14830000
O       -3.43380000       0.68090000      -0.54510000
H        0.93410000       1.72940000      -0.31510000
H        0.61440000      -0.44900000      -0.81130000
H        1.53990000      -0.09690000       1.69440000
H       -0.08520000      -1.75610000       2.93040000
H       -1.66820000      -1.06220000      -0.94550000
H       -2.26680000       1.26540000       0.99530000
