16
Properties=species:S:1:pos:R:3 gdb_67077=T pbc="F F F"
N       -0.18190000       1.46850000       0.14830000
C       -0.03730000       0.09220000       0.00070000
C       -1.05110000      -1.02800000      -0.07080000
C       -0.41220000      -1.64560000      -1.30560000
C        0.90840000      -0.94370000      -0.86110000
N        1.30480000      -1.55270000       0.43750000
C        0.07710000      -1.00240000       1.00630000
C        1.94180000      -0.61820000      -1.80490000
N        2.74430000      -0.30960000      -2.57950000
H        0.66570000       1.92450000       0.46750000
H       -0.51590000       1.93080000      -0.68970000
H       -2.09800000      -0.97890000       0.19660000
H       -0.36320000      -2.73680000      -1.39500000
H       -0.80680000      -1.21340000      -2.22770000
H        1.32950000      -2.57350000       0.39220000
H       -0.12290000      -0.97370000       2.06900000
