19
Properties=species:S:1:pos:R:3 gdb_93730=T pbc="F F F"
C        0.16530000       1.50020000       0.19810000
C        0.03970000      -0.01710000       0.05290000
C        0.67850000      -0.59730000      -1.21210000
C        1.23130000      -1.94360000      -0.73900000
O        2.30980000      -2.34630000      -1.55920000
C        1.63140000      -1.61420000       0.71000000
O        0.68680000      -0.65790000       1.17650000
C       -1.43870000      -0.40210000       0.18050000
O       -2.16540000      -0.69090000      -0.73380000
H        1.22220000       1.78020000       0.22240000
H       -0.31810000       2.01000000      -0.64110000
H       -0.30020000       1.84060000       1.12840000
H       -0.05080000      -0.68770000      -2.01790000
H        1.51440000       0.02260000      -1.55110000
H        0.43050000      -2.69760000      -0.74410000
H        2.53490000      -3.25590000      -1.34180000
H        1.61030000      -2.47710000       1.38440000
H        2.64930000      -1.19600000       0.70580000
H       -1.79000000      -0.39800000       1.23640000
