17
Properties=species:S:1:pos:R:3 gdb_73622=T pbc="F F F"
O       -0.12520000       1.42220000       0.15410000
C       -0.05980000       0.04000000       0.02170000
C        0.96390000      -0.56420000      -0.93830000
C        0.21580000      -1.74740000      -1.59680000
O       -1.12990000      -1.76680000      -1.06250000
C       -1.29260000      -0.74180000      -0.15790000
C       -0.53990000      -0.80480000       1.21860000
C        0.11580000      -2.02010000       1.72630000
O        0.81930000      -2.77620000       1.09140000
H        0.62130000       1.70900000       0.69230000
H        1.21480000       0.21420000      -1.66390000
H        1.87950000      -0.89610000      -0.44610000
H        0.14000000      -1.63560000      -2.68350000
H        0.68530000      -2.70080000      -1.35840000
H       -2.28720000      -0.31120000      -0.13450000
H       -1.04260000      -0.20780000       1.97420000
H       -0.09470000      -2.22340000       2.80030000
