21
Properties=species:S:1:pos:R:3 gdb_69959=T pbc="F F F"
C        0.00100000       1.54920000       0.02080000
C        0.05300000       0.04730000       0.00530000
C       -0.84750000      -0.81370000       0.84420000
C        0.64300000      -0.95110000       1.01730000
C        1.28900000      -1.77180000      -0.12140000
C        0.47560000      -2.92660000      -0.78200000
C       -0.10280000      -1.92300000      -1.83510000
C        0.69290000      -0.76520000      -1.15460000
O        1.47020000       0.07880000      -1.95400000
H        0.94720000       1.97920000      -0.31770000
H       -0.79110000       1.92890000      -0.63600000
H       -0.20480000       1.91500000       1.03240000
H       -1.34710000      -0.28040000       1.64800000
H       -1.45180000      -1.61180000       0.42390000
H        1.11420000      -0.75170000       1.97330000
H        2.36890000      -1.89740000      -0.03440000
H        1.10400000      -3.70370000      -1.22360000
H       -0.25980000      -3.41340000      -0.13780000
H        0.25740000      -2.11520000      -2.85140000
H       -1.19000000      -1.81590000      -1.87880000
H        1.98970000      -0.46620000      -2.55410000
