18
Properties=species:S:1:pos:R:3 gdb_60716=T pbc="F F F"
C       -0.44920000       1.41590000       0.04160000
N       -0.08720000      -0.00340000       0.02710000
C        0.15800000      -0.64340000       1.23930000
N        0.04620000      -0.03220000       2.34990000
C        0.00080000      -0.72630000      -1.15150000
N        0.15060000      -1.99800000      -1.15050000
C        0.02480000       0.08090000      -2.45180000
C       -0.89410000      -0.38320000      -3.56270000
O        0.78130000       1.01510000      -2.57480000
H        0.40170000       2.04530000      -0.22680000
H       -1.26460000       1.60850000      -0.65950000
H       -0.77640000       1.65290000       1.05240000
H        0.44570000      -1.68400000       1.09490000
H        0.27540000      -0.66300000       3.11510000
H        0.22760000      -2.36170000      -2.09680000
H       -1.93660000      -0.26550000      -3.24330000
H       -0.71120000       0.21620000      -4.45500000
H       -0.75920000      -1.44320000      -3.79530000
