18
Properties=species:S:1:pos:R:3 gdb_32148=T pbc="F F F"
C        0.00480000       1.40430000       0.02830000
O       -0.02180000      -0.02110000       0.03810000
C       -1.23380000      -0.61170000       0.02100000
N       -2.32550000       0.13730000      -0.00360000
C       -3.50260000      -0.50830000      -0.01960000
C       -3.62930000      -1.88430000      -0.01170000
C       -2.46540000      -2.67290000       0.01450000
C       -2.55010000      -4.17700000       0.02450000
C       -1.24680000      -2.01620000       0.03110000
H        1.06150000       1.67570000       0.04540000
H       -0.47520000       1.80310000      -0.87010000
H       -0.50700000       1.81580000       0.90310000
H       -4.38640000       0.12510000      -0.03980000
H       -4.61170000      -2.34370000      -0.02570000
H       -3.08110000      -4.54550000      -0.86010000
H       -1.55800000      -4.63460000       0.04070000
H       -3.10370000      -4.53250000       0.90050000
H       -0.30670000      -2.55520000       0.05160000
