17
Properties=species:S:1:pos:R:3 gdb_33257=T pbc="F F F"
O       -0.03430000       1.41900000      -0.08010000
C       -0.01150000       0.00780000       0.01520000
C       -1.41060000      -0.58030000       0.05290000
O       -2.02960000      -0.19300000      -1.17990000
C       -3.32510000      -0.53710000      -1.33980000
C       -4.11080000      -0.19830000      -2.41500000
N       -5.33470000      -0.78080000      -2.13360000
C       -5.22540000      -1.41670000      -0.94260000
N       -4.01510000      -1.28880000      -0.43290000
H       -0.62500000       1.62430000      -0.81370000
H        0.54860000      -0.44320000      -0.81970000
H        0.51100000      -0.24450000       0.94380000
H       -1.38680000      -1.67290000       0.14040000
H       -1.98260000      -0.17870000       0.89630000
H       -3.92420000       0.37000000      -3.30830000
H       -6.15550000      -0.73500000      -2.71300000
H       -6.04510000      -1.95370000      -0.49080000
