20
Properties=species:S:1:pos:R:3 gdb_93652=T pbc="F F F"
C       -0.00620000       1.55110000       0.02220000
C        0.00570000       0.01190000      -0.00690000
C       -1.42290000      -0.54090000      -0.00160000
N        0.77910000      -0.47230000      -1.17660000
C        2.14660000      -0.77870000      -0.71090000
C        1.96170000      -1.35110000       0.70340000
O        3.06930000      -1.29850000       1.55510000
C        0.80180000      -0.49570000       1.20690000
O        0.63870000      -0.21330000       2.36910000
H        1.00760000       1.95430000      -0.05430000
H       -0.58460000       1.92910000      -0.82520000
H       -0.44720000       1.91110000       0.95570000
H       -1.95820000      -0.20460000      -0.89520000
H       -1.42890000      -1.63650000       0.01200000
H       -1.96300000      -0.18820000       0.88060000
H        0.35370000      -1.32340000      -1.52950000
H        2.64120000      -1.46270000      -1.40240000
H        2.74650000       0.13760000      -0.65660000
H        1.57890000      -2.38580000       0.60500000
H        2.72960000      -1.00450000       2.41420000
