18
Properties=species:S:1:pos:R:3 gdb_123401=T pbc="F F F"
C       -0.03500000       1.48340000      -0.31270000
C       -0.15010000      -0.03010000      -0.20480000
C       -0.16890000      -0.69400000       1.14640000
C       -1.42360000      -0.65260000       0.30840000
C        1.37220000       1.97460000      -0.21380000
C        2.26110000       2.46940000      -1.11960000
C        3.42560000       2.71500000      -0.34590000
N        3.26020000       2.40050000       0.91460000
O        1.95170000       1.92770000       1.00100000
H       -0.45190000       1.82720000      -1.26540000
H       -0.62990000       1.94850000       0.48270000
H        0.36520000      -0.56710000      -0.99630000
H        0.34560000      -1.64130000       1.26050000
H       -0.11770000      -0.05540000       2.02140000
H       -2.22170000       0.01270000       0.62180000
H       -1.76920000      -1.57060000      -0.15340000
H        2.10750000       2.63530000      -2.17270000
H        4.37880000       3.11370000      -0.66400000
