19
Properties=species:S:1:pos:R:3 gdb_108367=T pbc="F F F"
C       -0.01460000       1.53000000       0.14630000
C        0.07480000       0.02520000       0.17490000
O       -1.14260000      -0.64300000      -0.08500000
C        1.28910000      -0.78750000      -0.26580000
C        2.56200000      -0.12650000       0.23780000
O        2.02760000      -0.02680000       1.58720000
C        0.85210000      -0.75070000       1.19740000
C        0.22610000      -1.74640000       2.13770000
O       -0.91660000      -1.23640000       2.80380000
H        0.88770000       1.98370000       0.56020000
H       -0.15570000       1.90360000      -0.87520000
H       -0.86480000       1.85690000       0.75250000
H       -1.38610000      -0.49290000      -1.00520000
H        1.21200000      -1.58440000      -0.99460000
H        3.43530000      -0.78830000       0.22080000
H        2.83470000       0.85120000      -0.17590000
H       -0.01080000      -2.66510000       1.58330000
H        0.95790000      -1.99980000       2.91050000
H       -1.56250000      -1.04410000       2.11380000
