15
Properties=species:S:1:pos:R:3 gdb_71277=T pbc="F F F"
O        0.02730000       1.40780000      -0.02400000
C       -0.04050000       0.03160000      -0.02050000
C        0.28870000      -0.75910000      -1.34210000
C       -0.85420000      -1.71390000      -1.00460000
C       -0.83410000      -2.04690000       0.47070000
O        0.37630000      -1.89740000       1.22110000
C        0.79230000      -0.61610000       1.07470000
O        1.69580000      -0.11030000       1.68010000
C       -1.39740000      -0.73660000       0.04620000
H        0.74190000       1.64650000       0.58630000
H        0.02680000      -0.11870000      -2.18650000
H        1.29820000      -1.16190000      -1.47540000
H       -1.39720000      -2.33440000      -1.70700000
H       -1.44190000      -2.85480000       0.85270000
H       -2.38310000      -0.34090000       0.24860000
