20
Properties=species:S:1:pos:R:3 gdb_69808=T pbc="F F F"
C        0.04560000       1.53500000      -0.03200000
C       -0.04600000       0.02110000       0.01200000
C       -0.90810000      -0.61660000       1.09440000
C        0.59350000      -0.73400000       1.16490000
N        1.34520000      -1.95000000       0.94720000
C        0.68380000      -3.21660000       0.68390000
C        1.40920000      -2.50040000      -0.41520000
C        0.67660000      -1.81160000      -1.49710000
C        0.02210000      -0.66230000      -1.30180000
H        0.98510000       1.86380000      -0.48960000
H       -0.77860000       1.95980000      -0.61760000
H       -0.00710000       1.96460000       0.97300000
H       -1.38790000       0.04140000       1.81270000
H       -1.49930000      -1.48210000       0.82020000
H        1.07300000      -0.11320000       1.91640000
H        1.14050000      -4.08290000       1.15650000
H       -0.40070000      -3.24940000       0.62420000
H        2.39050000      -2.88270000      -0.69490000
H        0.73300000      -2.25260000      -2.48840000
H       -0.46970000      -0.16820000      -2.13670000
