17
Properties=species:S:1:pos:R:3 gdb_125622=T pbc="F F F"
C        0.04970000       1.45790000      -0.04960000
C       -0.00550000      -0.03240000       0.05820000
N       -0.17840000      -0.80830000      -1.01480000
N       -0.19620000      -2.06180000      -0.53570000
C       -0.00240000      -2.13430000       0.80920000
C        0.00690000      -3.42890000       1.54690000
O        0.46960000      -4.43410000       0.64840000
C        0.11450000      -0.82460000       1.22550000
O        0.28960000      -0.43390000       2.52400000
H        1.00300000       1.86180000       0.31510000
H       -0.05830000       1.75270000      -1.09540000
H       -0.75180000       1.94140000       0.52270000
H       -0.21980000      -2.84710000      -1.16340000
H        0.65400000      -3.33390000       2.43120000
H       -1.00390000      -3.67550000       1.91140000
H        0.31080000      -5.29160000       1.05330000
H        0.46720000       0.51130000       2.53700000
