18
Properties=species:S:1:pos:R:3 gdb_12817=T pbc="F F F"
C       -0.00310000       1.46520000      -0.06120000
C       -0.03780000      -0.03850000       0.03960000
C       -0.86570000      -0.69080000       1.12720000
C        0.65360000      -0.73570000       1.18240000
O        1.27000000      -1.97390000       0.95830000
C        1.68650000      -2.14300000      -0.38960000
C        0.51560000      -1.92570000      -1.33350000
O        0.02900000      -0.59380000      -1.25080000
H        0.91260000       1.79580000      -0.56140000
H       -0.85850000       1.82560000      -0.64210000
H       -0.04550000       1.92350000       0.93050000
H       -1.40480000      -0.05310000       1.81970000
H       -1.34700000      -1.63730000       0.90810000
H        1.17370000      -0.13560000       1.92710000
H        2.50030000      -1.44480000      -0.63930000
H        2.06440000      -3.16630000      -0.47020000
H        0.81770000      -2.07470000      -2.37480000
H       -0.27990000      -2.64990000      -1.09920000
