17
Properties=species:S:1:pos:R:3 gdb_35766=T pbc="F F F"
N       -0.03210000      -1.14500000      -0.42760000
C       -0.01740000      -0.01450000      -0.19140000
C       -0.00070000       1.43840000       0.06720000
N       -0.65040000       1.75630000       1.35120000
C        0.28540000       1.92820000       2.48010000
C        1.66120000       2.38120000       1.99300000
C        1.55070000       3.30970000       0.76360000
C        1.45630000       1.95660000       0.03250000
O        2.16170000       1.31680000       1.12320000
H       -0.57820000       1.91400000      -0.73430000
H       -1.20600000       2.59170000       1.23350000
H       -0.15210000       2.64530000       3.18210000
H        0.41150000       0.97560000       3.00830000
H        2.35880000       2.62070000       2.79920000
H        0.71130000       4.00610000       0.70090000
H        2.48880000       3.82020000       0.54650000
H        1.94100000       1.80590000      -0.93490000
