18
Properties=species:S:1:pos:R:3 gdb_80415=T pbc="F F F"
C       -0.01900000       1.36300000      -0.11520000
N       -0.01960000      -0.06060000       0.11360000
C       -1.18230000      -0.98340000       0.02150000
C       -0.75240000      -2.10210000       1.01160000
C        0.35920000      -2.28010000      -0.07610000
O        1.22020000      -3.34640000      -0.15320000
C       -0.75770000      -1.93890000      -1.13360000
C        1.04630000      -0.90450000      -0.00260000
O        2.23900000      -0.68790000      -0.06980000
H        1.02100000       1.69740000      -0.10680000
H       -0.46290000       1.62580000      -1.08490000
H       -0.56630000       1.89320000       0.67200000
H       -2.14450000      -0.48060000       0.06870000
H       -0.45150000      -1.79590000       2.01580000
H       -1.44720000      -2.94410000       1.03920000
H        2.11200000      -2.96370000      -0.18470000
H       -1.44880000      -2.76890000      -1.29680000
H       -0.45470000      -1.48470000      -2.08040000
