18
Properties=species:S:1:pos:R:3 gdb_78856=T pbc="F F F"
C       -0.17520000       1.49150000       0.02170000
C        0.03960000      -0.02440000       0.01650000
C        0.96530000      -0.50890000      -1.08500000
C        1.66790000      -1.76030000      -0.71160000
N        2.40690000      -0.45610000      -0.66700000
C        2.32430000      -0.50290000       0.84470000
C        0.84410000      -0.54770000       1.19330000
C        1.60820000      -1.81430000       0.83340000
O        1.79100000      -2.91600000       1.63480000
H        0.78220000       2.01810000       0.08090000
H       -0.68750000       1.82060000      -0.88830000
H       -0.78560000       1.79940000       0.87680000
H       -0.92850000      -0.53740000      -0.05790000
H        0.78810000      -0.24940000      -2.12390000
H        1.96590000      -2.56240000      -1.37740000
H        3.11690000      -0.08920000       1.45220000
H        0.55110000      -0.39850000       2.22550000
H        0.93700000      -3.34240000       1.77000000
