17
Properties=species:S:1:pos:R:3 gdb_36207=T pbc="F F F"
C       -0.00180000      -1.13560000       0.44330000
C        0.01470000       0.02140000       0.11920000
C        0.06260000       1.43390000      -0.26020000
C        1.44140000       2.01150000      -0.15820000
C        2.21770000       2.65310000      -1.03410000
C        3.46610000       2.94270000      -0.17890000
C        3.71210000       1.55920000       0.49620000
C        2.34730000       2.00950000       1.09570000
O        2.86410000       3.38140000       1.08680000
H       -0.02670000      -2.15940000       0.72380000
H       -0.31670000       1.55840000      -1.28150000
H       -0.62260000       1.99670000       0.39120000
H        2.05160000       2.91290000      -2.06930000
H        4.25480000       3.59060000      -0.55840000
H        3.74260000       0.66450000      -0.12840000
H        4.52140000       1.58440000       1.22960000
H        1.95290000       1.67020000       2.05260000
