19
Properties=species:S:1:pos:R:3 gdb_89722=T pbc="F F F"
C       -0.21720000       1.46140000       0.05310000
C       -0.09700000      -0.02620000      -0.03140000
C       -0.17360000      -0.80510000      -1.11580000
C        0.03610000      -2.27020000      -0.81210000
O        1.25340000      -2.76620000      -1.37290000
C       -0.00680000      -2.32260000       0.73820000
C        0.10790000      -0.86860000       1.19010000
C        0.85650000      -0.41550000       2.37610000
O       -0.56970000      -0.47590000       2.39530000
H        0.73720000       1.92390000       0.33460000
H       -0.53080000       1.89300000      -0.90010000
H       -0.94290000       1.73820000       0.82520000
H       -0.30930000      -0.44920000      -2.13170000
H       -0.73560000      -2.90620000      -1.25710000
H        1.94460000      -2.12790000      -1.16360000
H       -0.96430000      -2.71810000       1.09030000
H        0.78480000      -2.96960000       1.12330000
H        1.36580000      -1.15580000       2.99290000
H        1.28350000       0.58620000       2.41320000
