17
Properties=species:S:1:pos:R:3 gdb_27265=T pbc="F F F"
N        0.14620000       1.42190000       0.03640000
C       -0.01990000       0.01940000       0.02110000
C       -1.08190000      -0.84970000      -0.03760000
O       -2.44190000      -0.72520000      -0.06970000
C       -2.94030000      -2.05250000      -0.37420000
C       -1.81580000      -3.08590000      -0.04470000
C       -0.61810000      -2.17970000      -0.03930000
C        0.75460000      -2.13360000       0.02710000
N        1.10300000      -0.80500000       0.06570000
H       -0.31580000       1.85950000      -0.75410000
H       -0.24440000       1.83990000       0.87540000
H       -3.85510000      -2.20240000       0.20360000
H       -3.18870000      -2.08670000      -1.44270000
H       -1.98400000      -3.56040000       0.93040000
H       -1.78940000      -3.88310000      -0.79370000
H        1.50540000      -2.90660000       0.05250000
H        2.03750000      -0.43470000       0.06110000
