20
Properties=species:S:1:pos:R:3 gdb_121317=T pbc="F F F"
C        0.24830000       1.51350000      -0.09760000
C        0.14580000      -0.00540000      -0.00730000
N        0.58610000      -0.62550000      -1.26060000
C        0.51000000      -2.08660000      -1.27850000
C        0.86200000      -2.63180000      -2.66430000
C        2.39530000      -2.68090000      -2.61150000
O        2.71590000      -2.94880000      -1.23610000
C        1.67610000      -2.62420000      -0.42590000
O        1.72820000      -2.73910000       0.76500000
H        1.27550000       1.81920000      -0.31520000
H       -0.39750000       1.91020000      -0.89030000
H       -0.06170000       1.97700000       0.84340000
H        0.78430000      -0.38040000       0.79750000
H       -0.88740000      -0.29930000       0.25490000
H        0.01930000      -0.26590000      -2.02320000
H       -0.43880000      -2.48100000      -0.88240000
H        0.45270000      -3.63910000      -2.78540000
H        0.48850000      -2.01090000      -3.48270000
H        2.83380000      -3.47670000      -3.21680000
H        2.84230000      -1.72240000      -2.89260000
