17
Properties=species:S:1:pos:R:3 gdb_104951=T pbc="F F F"
C        0.16020000       1.27010000       0.27040000
O       -0.19870000      -0.03670000      -0.15230000
C        0.57930000      -0.52690000      -1.20160000
C        1.93110000      -1.14550000      -0.84420000
C        0.76760000      -2.02860000      -1.18700000
C        0.44870000       0.14230000      -2.46270000
C        0.33860000       0.71480000      -3.52390000
C        0.18890000       1.40410000      -4.77420000
O        0.74560000       1.09190000      -5.80360000
H        1.20130000       1.30800000       0.61950000
H        0.03140000       2.00320000      -0.53630000
H       -0.50700000       1.52380000       1.09620000
H        2.74240000      -1.04610000      -1.55500000
H        2.20930000      -1.06330000       0.20030000
H        0.25910000      -2.53440000      -0.37470000
H        0.76310000      -2.54480000      -2.13890000
H       -0.49780000       2.27430000      -4.72800000
