16
Properties=species:S:1:pos:R:3 gdb_62408=T pbc="F F F"
C       -0.13620000       1.63340000      -0.01040000
C        0.01910000       0.11440000      -0.02440000
C       -1.25530000      -0.54360000       0.21900000
C       -2.30410000      -1.08100000       0.45290000
N        0.67340000      -0.51580000      -1.26020000
C        2.04640000      -0.02510000      -1.31410000
C        1.74730000      -1.15030000      -0.38220000
C        1.12330000      -0.58770000       0.85700000
O        1.27220000      -0.74200000       2.03020000
H        0.81440000       2.15290000      -0.14500000
H       -0.82480000       1.94430000      -0.80120000
H       -0.55540000       1.94070000       0.95090000
H       -3.23170000      -1.55830000       0.65290000
H        2.55690000      -0.28840000      -2.23540000
H        2.30740000       0.95230000      -0.92060000
H        2.12400000      -2.15590000      -0.52650000
