20
Properties=species:S:1:pos:R:3 gdb_120678=T pbc="F F F"
C        0.19600000       1.53860000       0.12490000
C        0.09740000       0.08660000       0.12180000
C        0.01790000      -1.11610000       0.13280000
C       -0.04270000      -2.55190000       0.09290000
C       -0.70170000      -3.32040000       1.19750000
N       -1.31510000      -3.27150000      -0.12350000
C       -2.53780000      -2.47980000      -0.25760000
C       -3.74970000      -3.40690000      -0.20320000
O       -3.84170000      -4.11680000       1.02180000
H        1.24240000       1.86120000       0.16180000
H       -0.25190000       1.97270000      -0.77600000
H       -0.31460000       1.97170000       0.99210000
H        0.79480000      -3.02390000      -0.41680000
H       -0.28920000      -4.27920000       1.50240000
H       -1.16060000      -2.73870000       1.99380000
H       -2.62400000      -1.70550000       0.51950000
H       -2.51540000      -1.97260000      -1.22950000
H       -4.66590000      -2.81240000      -0.28490000
H       -3.71730000      -4.09660000      -1.05950000
H       -3.10740000      -4.73880000       1.03810000
