17
Properties=species:S:1:pos:R:3 gdb_10148=T pbc="F F F"
C        0.04840000       1.49120000       0.12830000
C        0.00750000      -0.02030000       0.00830000
O        0.68580000      -0.56620000       1.14850000
C        0.75580000      -1.91340000       1.22790000
C        1.50120000      -2.27610000       2.48940000
O        1.72410000      -3.40650000       2.84020000
N        0.25420000      -2.67200000       0.34830000
C        0.33580000      -4.12080000       0.44350000
H        1.07980000       1.85440000       0.14710000
H       -0.46110000       1.94450000      -0.72710000
H       -0.45060000       1.82460000       1.04260000
H       -1.01750000      -0.40660000      -0.01330000
H        0.50130000      -0.37690000      -0.90250000
H        1.83190000      -1.39420000       3.07620000
H       -0.16270000      -4.54980000      -0.42960000
H        1.37140000      -4.47740000       0.46710000
H       -0.14940000      -4.50410000       1.34800000
