13
Properties=species:S:1:pos:R:3 gdb_75709=T pbc="F F F"
O        0.41790000       1.06080000      -0.70540000
C        0.00520000      -0.07870000      -0.03420000
C        0.57670000      -0.26060000       1.36980000
O        1.64750000       0.15830000       1.72370000
C       -0.46980000      -0.97090000       2.20170000
O       -1.49960000      -0.00660000       2.46620000
C       -1.73240000      -0.97980000       1.43480000
C       -1.51250000      -0.29500000       0.09350000
O       -2.35720000      -0.00170000      -0.70300000
H        1.24200000       1.34290000      -0.28290000
H        0.32780000      -1.01030000      -0.55650000
H       -0.22740000      -1.66400000       3.00020000
H       -2.54300000      -1.68110000       1.60270000
