23
Properties=species:S:1:pos:R:3 gdb_94694=T pbc="F F F"
C       -0.25800000       1.53280000       0.12360000
C        0.01250000       0.02910000       0.00010000
C        0.81980000      -0.34420000      -1.27720000
C        2.34540000      -0.45170000      -1.01980000
C        2.61710000      -0.87350000       0.43070000
C        4.06610000      -1.16820000       0.74220000
C        1.50540000      -1.81660000       0.95700000
C        0.78420000      -0.48250000       1.22400000
O        2.07160000       0.19570000       1.27400000
H        0.68240000       2.08510000       0.20030000
H       -0.81110000       1.90410000      -0.74500000
H       -0.85010000       1.75630000       1.01820000
H       -0.95190000      -0.49570000      -0.03580000
H        0.46220000      -1.31060000      -1.64720000
H        0.61820000       0.37410000      -2.07820000
H        2.79530000      -1.16070000      -1.72500000
H        2.84270000       0.51270000      -1.17180000
H        4.69990000      -0.31580000       0.47440000
H        4.19530000      -1.36860000       1.80940000
H        4.41220000      -2.04010000       0.17690000
H        1.05250000      -2.53830000       0.27380000
H        1.80730000      -2.31140000       1.88210000
H        0.22550000      -0.36120000       2.15730000
