18
Properties=species:S:1:pos:R:3 gdb_89607=T pbc="F F F"
C        0.97050000       0.46630000       0.60150000
C       -0.33640000       0.34300000      -0.15290000
O       -1.38360000       0.78530000       0.27140000
C       -0.30750000      -0.35820000      -1.46640000
C       -1.50510000      -0.51600000      -2.40830000
C       -1.02300000      -1.97540000      -2.71990000
O       -0.59650000      -2.26600000      -4.03350000
C        0.16160000      -1.77850000      -1.77090000
N        0.95760000      -0.63210000      -2.14530000
H        1.47080000      -0.50290000       0.68930000
H        1.65590000       1.11420000       0.04570000
H        0.77800000       0.88510000       1.58990000
H       -2.46060000      -0.47990000      -1.88400000
H       -1.52370000       0.17300000      -3.25860000
H       -1.73070000      -2.72590000      -2.34610000
H       -1.36620000      -2.25140000      -4.61160000
H        0.59460000      -2.52050000      -1.10970000
H        0.90680000      -0.44710000      -3.14590000
