11
Properties=species:S:1:pos:R:3 gdb_132895=T pbc="F F F"
F        0.00540000      -0.00290000       0.00350000
C       -0.02300000       1.32940000       0.01060000
C       -1.18960000       1.99860000       0.02950000
O       -1.22040000       3.35000000       0.03670000
C       -0.08110000       4.14870000       0.02540000
O       -0.19470000       5.34140000       0.03290000
C        1.16940000       3.39070000       0.00490000
F        2.26920000       4.12450000      -0.00610000
C        1.21300000       2.04190000      -0.00240000
H       -2.16930000       1.54230000       0.04030000
H        2.15600000       1.50820000      -0.01770000
