16
Properties=species:S:1:pos:R:3 gdb_99470=T pbc="F F F"
C       -0.58960000      -1.57060000       0.25510000
N        0.42240000      -0.54040000       0.03260000
C        0.82250000      -0.37220000      -1.37040000
C       -0.14370000       0.31700000      -2.22200000
C       -0.96310000       0.89370000      -2.88580000
C        2.16700000       0.35450000      -1.24340000
O        2.32870000       1.54590000      -1.31170000
C        3.37230000      -0.54640000      -0.93790000
O        3.36940000      -1.73840000      -1.09190000
H       -1.50820000      -1.42050000      -0.33270000
H       -0.17080000      -2.54860000      -0.00240000
H       -0.85190000      -1.58690000       1.31620000
H        0.09900000       0.35600000       0.38240000
H        1.03740000      -1.37240000      -1.76370000
H       -1.67960000       1.40230000      -3.48260000
H        4.26510000       0.02920000      -0.61570000
