8
Properties=species:S:1:pos:R:3 gdb_32=T pbc="F F F"
N       -0.03610000       1.48760000       0.03680000
C       -0.01040000       0.02520000      -0.01510000
C       -1.37180000      -0.52110000       0.02740000
N       -2.44030000      -0.95960000       0.03370000
H        0.91730000       1.83550000       0.05200000
H       -0.47160000       1.85680000      -0.80280000
H        0.48950000      -0.40880000      -0.89720000
H        0.52830000      -0.34530000       0.86470000
