19
Properties=species:S:1:pos:R:3 gdb_85014=T pbc="F F F"
C       -0.19260000       1.54320000       0.02400000
C        0.06990000       0.03610000      -0.00220000
C        0.90570000      -0.46870000      -1.19440000
C        1.95610000      -1.39440000      -0.59770000
O        2.75560000      -2.08680000      -1.18150000
N        1.86050000      -1.29280000       0.78710000
C        2.75910000      -1.99820000       1.67590000
C        0.84100000      -0.44470000       1.22330000
N        0.54950000      -0.11180000       2.41330000
H        0.74760000       2.10370000      -0.01500000
H       -0.80440000       1.84420000      -0.83180000
H       -0.71100000       1.81870000       0.94460000
H       -0.89410000      -0.48580000       0.01570000
H        0.32990000      -1.00410000      -1.95230000
H        1.42750000       0.34690000      -1.70720000
H        3.42610000      -2.59710000       1.05490000
H        3.35040000      -1.29540000       2.27300000
H        2.20080000      -2.65350000       2.35270000
H        1.16890000      -0.54330000       3.09980000
