16
Properties=species:S:1:pos:R:3 gdb_5123=T pbc="F F F"
C        0.00270000       1.45430000      -0.01900000
N        0.07330000       0.00930000      -0.00700000
C        0.14000000      -0.79820000      -1.10530000
C        0.13870000      -2.11580000      -0.69160000
C        0.05710000      -2.09370000       0.72350000
O        0.03280000      -3.14500000       1.60300000
C        0.01330000      -0.77790000       1.13660000
N       -0.02630000      -0.19210000       2.42040000
H        0.69790000       1.85570000      -0.76130000
H       -1.00720000       1.81120000      -0.25550000
H        0.27690000       1.81850000       0.97180000
H        0.17610000      -0.37700000      -2.09740000
H        0.19520000      -2.98520000      -1.32990000
H        0.14590000      -3.95780000       1.10300000
H        0.64190000      -0.64020000       3.03890000
H       -0.93890000      -0.28950000       2.85670000
