16
Properties=species:S:1:pos:R:3 gdb_10839=T pbc="F F F"
C       -0.11890000       1.49640000       0.01160000
C        0.02840000      -0.00850000       0.00150000
O        0.71910000      -0.37830000      -1.16990000
C        0.84660000      -1.78100000      -1.31030000
C        1.27320000      -2.49230000      -0.02900000
O        1.80620000      -3.57430000      -0.04220000
C        0.88220000      -1.79480000       1.27110000
O        0.75150000      -0.39070000       1.14910000
H        0.87170000       1.95700000      -0.00020000
H       -0.67490000       1.82250000      -0.86980000
H       -0.64940000       1.81310000       0.91190000
H       -0.95880000      -0.51310000       0.01260000
H       -0.11180000      -2.23470000      -1.62320000
H        1.57940000      -1.97940000      -2.09550000
H       -0.06750000      -2.25170000       1.60520000
H        1.63620000      -2.00170000       2.03370000
