14
Properties=species:S:1:pos:R:3 gdb_125393=T pbc="F F F"
C       -0.01720000       1.51020000       0.09600000
C       -0.00960000       0.02790000       0.00400000
C       -0.03370000      -0.81990000      -1.05130000
O       -0.01280000      -2.15230000      -0.64550000
C        0.02510000      -2.10360000       0.69420000
N        0.05940000      -2.95760000       1.68950000
C        0.08360000      -2.08460000       2.74760000
N        0.06640000      -0.77900000       2.46880000
N        0.02800000      -0.82170000       1.10990000
H        0.87950000       1.87360000       0.60840000
H       -0.05270000       1.95140000      -0.90200000
H       -0.88400000       1.86080000       0.66570000
H       -0.06530000      -0.65280000      -2.11290000
H        0.11520000      -2.42830000       3.77080000
