15
Properties=species:S:1:pos:R:3 gdb_55594=T pbc="F F F"
C       -0.30630000       1.49310000       0.01480000
C        0.14070000       0.04210000       0.00110000
O        1.28780000      -0.31430000      -0.01350000
N       -0.94740000      -0.85120000       0.00730000
C       -0.88240000      -2.23140000      -0.00180000
O        0.08920000      -2.92660000      -0.01650000
O       -2.18940000      -2.68240000       0.00970000
C       -2.38310000      -4.04170000       0.00360000
N       -3.56680000      -4.46380000       0.01410000
H        0.57790000       2.12870000       0.00880000
H       -0.92310000       1.71860000      -0.86170000
H       -0.90320000       1.70790000       0.90760000
H       -1.88130000      -0.46910000       0.01970000
H       -1.44620000      -4.59880000      -0.00990000
H       -3.56930000      -5.48260000       0.00810000
