21
Properties=species:S:1:pos:R:3 gdb_91170=T pbc="F F F"
C       -0.13630000       1.54910000       0.02520000
C        0.03200000       0.02730000       0.00140000
C        0.77350000      -0.48160000      -1.26610000
C        1.98360000      -1.39000000      -0.83290000
C        2.86160000      -0.49990000       0.03100000
C        2.25150000      -0.04090000       1.12240000
C        0.81560000      -0.51480000       1.26610000
C        0.78380000      -2.02840000       1.13330000
C        1.38900000      -2.48470000       0.03880000
H        0.83520000       2.05320000       0.00200000
H       -0.71080000       1.89200000      -0.84210000
H       -0.66770000       1.87640000       0.92610000
H       -0.96360000      -0.42720000       0.03650000
H        0.09950000      -1.05260000      -1.91120000
H        1.15410000       0.35990000      -1.85370000
H        2.50770000      -1.78160000      -1.70590000
H        3.87330000      -0.24950000      -0.26680000
H        2.69820000       0.63450000       1.84250000
H        0.34390000      -0.16160000       2.18500000
H        0.26710000      -2.64440000       1.86020000
H        1.44010000      -3.52690000      -0.25450000
