15
Properties=species:S:1:pos:R:3 gdb_66656=T pbc="F F F"
O       -0.03870000       1.34400000       0.05140000
C       -0.00830000      -0.02820000       0.02330000
C       -0.27330000      -0.85920000      -1.22090000
C        0.24610000      -2.27020000      -0.81460000
C       -0.70070000      -2.31420000       0.31950000
C       -1.24720000      -0.90460000      -0.05480000
N        0.76730000      -2.15480000       0.58810000
C        0.99420000      -0.76540000       0.83160000
N        1.84720000      -0.19750000       1.56600000
H        0.67450000       1.59840000       0.65700000
H       -0.40050000      -0.44730000      -2.21070000
H        0.66260000      -3.04330000      -1.44710000
H       -1.21830000      -3.13070000       0.80590000
H       -2.25870000      -0.53390000       0.01440000
H        2.44650000      -0.87460000       2.04000000
