23
Properties=species:S:1:pos:R:3 gdb_110144=T pbc="F F F"
C        0.51290000       1.47030000       0.26280000
C        0.06650000       0.03620000      -0.04330000
C        0.69320000      -0.51910000      -1.30910000
C        1.84570000      -1.52040000      -1.25320000
O        2.29650000      -2.00190000      -0.02870000
C        3.39010000      -1.27240000       0.49240000
C        0.46960000      -1.96460000      -1.68280000
O       -0.31250000      -2.71020000      -0.81170000
C        0.03770000      -4.08360000      -0.78840000
H        1.59850000       1.53770000       0.39320000
H        0.23860000       2.15360000      -0.54890000
H        0.04360000       1.84020000       1.17990000
H        0.30500000      -0.62510000       0.79350000
H       -1.02510000       0.01130000      -0.14600000
H        0.72040000       0.17670000      -2.14520000
H        2.62290000      -1.44720000      -2.01670000
H        3.67320000      -1.74810000       1.43430000
H        4.25160000      -1.29710000      -0.19230000
H        3.12950000      -0.22270000       0.68310000
H        0.33340000      -2.21840000      -2.73680000
H        1.06750000      -4.22570000      -0.44130000
H       -0.65160000      -4.57490000      -0.09750000
H       -0.07210000      -4.54210000      -1.78330000
