16
Properties=species:S:1:pos:R:3 gdb_27206=T pbc="F F F"
O        0.08880000       1.34270000       0.20260000
C        0.05980000      -0.00030000      -0.00920000
C        0.04990000      -0.80440000      -1.12280000
C        0.06030000      -0.81960000      -2.57740000
C        0.03490000      -2.09620000      -3.00760000
C        0.00400000      -3.08510000      -1.84750000
C        0.01590000      -2.16280000      -0.65630000
C        0.00620000      -2.15220000       0.70770000
N        0.03320000      -0.81200000       1.09360000
H        0.10240000       1.78120000      -0.65310000
H        0.08470000       0.05340000      -3.21910000
H        0.03550000      -2.41230000      -4.04310000
H       -0.88770000      -3.72550000      -1.88960000
H        0.86660000      -3.76500000      -1.87660000
H       -0.01680000      -2.93180000       1.45090000
H        0.03430000      -0.46730000       2.03770000
