20
Properties=species:S:1:pos:R:3 gdb_63443=T pbc="F F F"
C       -0.06680000       1.58820000      -0.09690000
C       -0.10150000       0.06710000      -0.07190000
O       -1.39090000      -0.44070000      -0.32890000
C        1.08010000      -0.60520000      -0.83990000
N        1.78740000      -0.73910000       0.44950000
C        2.58730000      -1.91530000       0.69420000
C        3.40960000      -1.76810000       1.96510000
O        3.71420000      -2.67780000       2.69050000
C        0.52040000      -0.56680000       1.19420000
H        0.93300000       1.95410000       0.15230000
H       -0.32350000       1.96680000      -1.09460000
H       -0.78240000       1.99900000       0.62230000
H       -1.77720000       0.06280000      -1.05340000
H        0.75360000      -1.56510000      -1.26730000
H        1.61560000      -0.02370000      -1.59940000
H        2.01410000      -2.85800000       0.74550000
H        3.31060000      -2.01840000      -0.12910000
H        3.72780000      -0.71940000       2.16400000
H        0.58900000       0.04520000       2.09970000
H        0.01760000      -1.51700000       1.42930000
