15
Properties=species:S:1:pos:R:3 gdb_24205=T pbc="F F F"
C       -0.05470000       1.58620000      -0.04850000
C        1.48680000       1.32590000       0.01520000
O        1.17510000       0.17480000       0.88240000
C       -0.00950000       0.02320000      -0.00580000
C        0.67940000      -0.29110000      -1.33030000
C        1.70710000       0.60850000      -1.31190000
N        2.41580000       0.38150000      -2.45480000
C        1.76180000      -0.65010000      -3.10380000
N        0.69990000      -1.08070000      -2.43990000
H       -0.43480000       2.01920000       0.88000000
H       -0.47030000       2.07490000      -0.93240000
H        2.20930000       2.02670000       0.42840000
H       -0.80310000      -0.59800000       0.40180000
H        3.24870000       0.84450000      -2.77830000
H        2.11520000      -1.03500000      -4.04830000
