19
Properties=species:S:1:pos:R:3 gdb_74315=T pbc="F F F"
C       -0.02120000       1.48040000       0.01520000
C        0.00740000      -0.01530000       0.00190000
C        0.06640000      -0.81540000      -1.07070000
C        0.02110000      -2.29160000      -0.71000000
C        1.16340000      -3.07600000      -1.33570000
O        1.03220000      -3.90240000      -2.20170000
C        0.07490000      -2.26820000       0.82300000
C        1.25350000      -1.62200000       1.51260000
C       -0.00540000      -0.81650000       1.26460000
H        0.83570000       1.88670000       0.56680000
H       -0.00740000       1.89420000      -0.99630000
H       -0.92120000       1.85020000       0.52220000
H        0.14100000      -0.47840000      -2.09860000
H       -0.90390000      -2.75800000      -1.07090000
H        2.16890000      -2.82130000      -0.93190000
H       -0.45190000      -3.04570000       1.36230000
H        1.45140000      -1.94970000       2.52790000
H        2.13770000      -1.35560000       0.94440000
H       -0.60440000      -0.49370000       2.10950000
