23
Properties=species:S:1:pos:R:3 gdb_39390=T pbc="F F F"
C        0.00400000       1.53520000      -0.03790000
C        1.28080000       0.70930000      -0.07400000
C        2.25730000       0.46860000       1.05620000
C        2.55780000      -1.06300000       1.23760000
C        1.78330000      -2.07110000       0.34060000
C        0.22460000      -1.99950000       0.31060000
C       -0.32200000      -0.86980000       1.23010000
C       -0.06190000       0.04260000       0.02800000
C       -0.31210000      -1.15170000      -0.89440000
H       -0.24320000       2.07260000       0.87400000
H       -0.28150000       2.05590000      -0.94690000
H        1.72650000       0.64600000      -1.06520000
H        3.19110000       1.01500000       0.88460000
H        1.84640000       0.86970000       1.98860000
H        3.62380000      -1.24530000       1.06170000
H        2.39040000      -1.33330000       2.28640000
H        2.15720000      -1.99360000      -0.68760000
H        2.07910000      -3.07010000       0.68110000
H       -0.21430000      -2.99360000       0.43020000
H       -1.39510000      -0.98870000       1.41500000
H        0.17840000      -0.67220000       2.17930000
H        0.24020000      -1.19380000      -1.83840000
H       -1.37360000      -1.35170000      -1.08070000
