16
Properties=species:S:1:pos:R:3 gdb_92407=T pbc="F F F"
O        0.04270000       1.38240000       0.51760000
C        0.04630000       0.04850000       0.11500000
C        0.42730000      -0.93010000       1.25600000
C       -0.89890000      -1.71100000       1.06210000
C       -2.08300000      -1.15080000       1.86700000
O       -2.35230000      -0.13810000       0.85950000
C       -1.35170000      -0.66970000      -0.01590000
C       -1.84040000      -0.97930000      -1.34630000
N       -2.18320000      -1.22500000      -2.42330000
H       -0.30480000       1.92770000      -0.19670000
H        0.63970000      -0.11870000      -0.79500000
H        1.33200000      -1.50740000       1.06120000
H        0.52080000      -0.43580000       2.22540000
H       -0.85250000      -2.78200000       0.88070000
H       -2.93480000      -1.83250000       1.97070000
H       -1.84440000      -0.70690000       2.83930000
