19
Properties=species:S:1:pos:R:3 gdb_114941=T pbc="F F F"
C       -0.45310000       1.40180000      -0.04520000
C       -0.09490000      -0.08540000      -0.11330000
C        0.81980000      -0.45610000      -1.28930000
C        1.13620000      -1.98350000      -1.36380000
N        0.26870000      -2.54070000      -2.41670000
C       -0.21480000      -1.52020000      -3.02870000
N        0.18460000      -0.27320000      -2.60560000
C       -1.16910000      -1.66060000      -4.15730000
O       -1.69740000      -0.71300000      -4.68880000
H        0.44650000       2.02310000       0.02690000
H       -1.01280000       1.72890000      -0.92860000
H       -1.07740000       1.61590000       0.82700000
H        0.41920000      -0.37900000       0.81090000
H       -1.00690000      -0.69340000      -0.16870000
H        1.73780000       0.13930000      -1.23290000
H        2.18250000      -2.16460000      -1.64130000
H        0.96120000      -2.49510000      -0.41170000
H       -0.42120000       0.51140000      -2.79560000
H       -1.36470000      -2.70940000      -4.45020000
