21
Properties=species:S:1:pos:R:3 gdb_93715=T pbc="F F F"
C       -0.10260000       1.55910000      -0.00910000
C        0.05560000       0.03970000      -0.01390000
C        0.88340000      -0.52550000      -1.18180000
C        1.18930000      -1.95520000      -0.72570000
C        1.56290000      -1.79430000       0.78570000
N        2.99590000      -1.57890000       1.04850000
C        0.76620000      -0.52040000       1.24060000
C        1.15610000      -2.99030000       1.53980000
N        0.81990000      -3.94160000       2.10340000
H        0.87410000       2.05510000       0.03720000
H       -0.61220000       1.90730000      -0.91360000
H       -0.68780000       1.89690000       0.85240000
H       -0.94320000      -0.41330000      -0.07260000
H        0.35790000      -0.48630000      -2.13990000
H        1.81140000       0.05160000      -1.29960000
H        0.28980000      -2.57260000      -0.82410000
H        1.99200000      -2.45110000      -1.27820000
H        3.53400000      -2.37010000       0.70430000
H        3.30750000      -0.76330000       0.52810000
H        1.49150000       0.19690000       1.63810000
H        0.06920000      -0.74440000       2.05000000
