17
Properties=species:S:1:pos:R:3 gdb_50949=T pbc="F F F"
O       -0.55730000       0.75840000       0.90740000
C        0.08870000       0.95600000      -0.08960000
C        1.32870000       1.82570000      -0.13490000
C        1.29960000       2.87890000      -1.27180000
C        2.54850000       3.80240000      -1.16920000
C        2.51980000       4.91850000      -2.10340000
C        2.47510000       5.84410000      -2.86790000
C        1.21680000       2.24580000      -2.58600000
C        1.17550000       1.70350000      -3.65780000
H       -0.19140000       0.49460000      -1.06090000
H        1.43870000       2.31350000       0.83770000
H        2.19430000       1.16700000      -0.29140000
H        0.41500000       3.51340000      -1.13230000
H        2.60810000       4.18350000      -0.14240000
H        3.44790000       3.19680000      -1.33350000
H        2.44460000       6.65950000      -3.54730000
H        1.12720000       1.24000000      -4.61220000
