19
Properties=species:S:1:pos:R:3 gdb_17278=T pbc="F F F"
C        0.00540000       1.41920000      -0.19870000
C        0.14290000      -0.05660000       0.08150000
O        1.46470000      -0.58600000       0.23630000
C        0.57320000      -0.64600000       1.35980000
C        0.95670000       0.14470000       2.58680000
N        1.87390000      -0.63720000       3.41040000
C        3.28450000      -0.55510000       3.03610000
C        2.78230000       0.12330000       4.26230000
H        0.65920000       2.02000000       0.43590000
H        0.26250000       1.62780000      -1.24250000
H       -1.02950000       1.74160000      -0.04010000
H       -0.50010000      -0.68470000      -0.53960000
H        0.22780000      -1.65530000       1.59000000
H        1.38760000       1.11420000       2.28860000
H        0.05740000       0.34800000       3.18300000
H        3.84420000      -1.48270000       3.10950000
H        3.54420000       0.06860000       2.18390000
H        2.71550000       1.21020000       4.23920000
H        2.97040000      -0.29840000       5.24560000
