20
Properties=species:S:1:pos:R:3 gdb_15652=T pbc="F F F"
C       -0.67260000       1.33050000      -0.05010000
C        0.08860000       0.00410000      -0.05010000
C        1.28320000      -0.05120000      -1.03990000
C        2.22140000      -1.03600000      -0.38530000
C        1.88720000      -1.27760000       0.88110000
C        0.67700000      -0.47680000       1.31530000
C        1.07550000       0.64000000       2.28720000
O        1.60750000       0.01570000       3.44890000
H       -0.02780000       2.17350000       0.22140000
H       -1.07680000       1.53950000      -1.04650000
H       -1.51580000       1.31390000       0.64880000
H       -0.61030000      -0.78110000      -0.36300000
H        0.96890000      -0.35230000      -2.04620000
H        1.76390000       0.93260000      -1.15320000
H        3.07930000      -1.45800000      -0.89810000
H        2.42810000      -1.91620000       1.56860000
H       -0.04960000      -1.10080000       1.85100000
H        1.82060000       1.30050000       1.81580000
H        0.19660000       1.25290000       2.53960000
H        1.88490000       0.70440000       4.05960000
