22
Properties=species:S:1:pos:R:3 gdb_58479=T pbc="F F F"
C        0.11180000       1.42770000      -0.31530000
C        0.02290000      -0.02910000       0.16480000
C        0.64570000      -0.19810000       1.55880000
C       -1.41480000      -0.55470000       0.10010000
C       -2.43520000       0.10270000       1.01330000
C       -1.90570000      -1.05240000      -1.22870000
C       -1.61900000      -2.05790000      -0.11920000
C       -0.50450000      -2.95430000      -0.23630000
N        0.39360000      -3.67990000      -0.32120000
H        1.15700000       1.74780000      -0.36810000
H       -0.32860000       1.54900000      -1.31020000
H       -0.40430000       2.11110000       0.36750000
H        0.61340000      -0.63930000      -0.52980000
H        0.59880000      -1.23860000       1.89340000
H        1.69890000       0.09870000       1.54270000
H        0.14190000       0.42570000       2.30510000
H       -2.52310000       1.17230000       0.79840000
H       -3.42600000      -0.34100000       0.87640000
H       -2.16470000      -0.00820000       2.06770000
H       -2.94680000      -0.91010000      -1.49740000
H       -1.21730000      -1.04310000      -2.06640000
H       -2.47980000      -2.50270000       0.36950000
