14
Properties=species:S:1:pos:R:3 gdb_20382=T pbc="F F F"
C        0.02840000       1.50220000      -0.07660000
C        1.52930000       1.94740000       0.05080000
C        2.13330000       0.72630000       0.66120000
C        1.29680000      -0.34440000       0.66430000
C       -0.03940000      -0.06380000       0.05670000
N        1.99240000      -1.38910000       1.20290000
N        3.14720000      -1.06180000       1.52940000
O        3.30100000       0.42710000       1.16200000
H       -0.54160000       1.95250000       0.74020000
H       -0.41700000       1.85100000      -1.01030000
H        1.98560000       2.15800000      -0.92390000
H        1.65000000       2.84660000       0.66130000
H       -0.88620000      -0.37750000       0.67350000
H       -0.15620000      -0.54840000      -0.91980000
