18
Properties=species:S:1:pos:R:3 gdb_11543=T pbc="F F F"
C       -0.56720000       1.01770000      -0.70620000
N        0.03320000      -0.23820000      -1.11190000
C        1.23830000      -0.65590000      -0.63000000
O        1.90050000      -0.01910000       0.17010000
C        1.72080000      -2.02320000      -1.13820000
C        1.06090000      -2.53540000      -2.39460000
C        0.82850000      -3.97850000      -2.62840000
N       -0.31430000      -3.08860000      -2.33880000
H        0.11940000       1.49670000      -0.00740000
H       -0.72530000       1.67870000      -1.56560000
H       -1.53060000       0.85710000      -0.20900000
H       -0.45940000      -0.82380000      -1.76790000
H        2.80310000      -1.93150000      -1.27340000
H        1.57620000      -2.73910000      -0.31810000
H        1.21740000      -1.91340000      -3.27430000
H        0.85440000      -4.37670000      -3.63830000
H        1.14190000      -4.67750000      -1.85750000
H       -0.58170000      -3.21240000      -1.36350000
