15
Properties=species:S:1:pos:R:3 gdb_31365=T pbc="F F F"
C       -0.02800000       1.42410000       0.13120000
N       -0.01440000      -0.01500000      -0.05530000
C        0.61870000      -0.59950000      -1.09260000
N        1.16730000       0.06400000      -2.04690000
C        1.77190000      -0.62090000      -3.10960000
O        2.28780000      -0.03720000      -4.03960000
C        1.74090000      -2.09520000      -3.01440000
C        1.15300000      -2.67980000      -1.97100000
O        0.56470000      -1.96400000      -0.96830000
H        0.91620000       1.79630000       0.54650000
H       -0.18860000       1.90850000      -0.83270000
H       -0.84380000       1.68260000       0.80930000
H       -0.30480000      -0.61940000       0.69480000
H        2.20050000      -2.68210000      -3.79810000
H        1.06690000      -3.74360000      -1.78960000
