19
Properties=species:S:1:pos:R:3 gdb_88555=T pbc="F F F"
C       -0.17230000       1.41900000      -0.14020000
C       -0.12740000      -0.04890000       0.19450000
O        1.10190000      -0.75310000      -0.02710000
C        0.61860000      -0.64730000       1.31700000
C        1.46950000       0.09490000       2.27760000
C        2.46400000       1.25010000       2.06380000
C        3.29140000       0.70320000       3.27910000
C        2.25210000      -0.41510000       3.42360000
O        0.97550000       0.20360000       3.62230000
H        0.72600000       1.94090000       0.19110000
H       -0.26680000       1.55460000      -1.22270000
H       -1.04280000       1.88650000       0.33250000
H       -1.00410000      -0.61050000      -0.13670000
H        0.22710000      -1.57580000       1.73720000
H        3.00070000       1.16910000       1.11720000
H        2.04080000       2.25140000       2.17010000
H        4.27700000       0.33740000       2.98280000
H        3.38850000       1.35920000       4.14710000
H        2.37350000      -1.42390000       3.80270000
