21
Properties=species:S:1:pos:R:3 gdb_118656=T pbc="F F F"
C        0.20900000       1.48990000      -0.46380000
C        0.39870000       0.01070000      -0.17730000
O        0.56900000      -0.66350000      -1.41590000
C        0.71110000      -2.07130000      -1.30460000
C        0.63010000      -2.67760000      -2.72010000
O        1.77510000      -2.51320000      -3.51170000
C        1.93290000      -1.22860000      -4.08740000
C        1.94260000      -2.46170000      -0.60750000
C        2.94450000      -2.77980000      -0.02510000
H        1.08720000       1.89860000      -0.97180000
H       -0.66360000       1.65170000      -1.10300000
H        0.06260000       2.04030000       0.47040000
H        1.27350000      -0.15470000       0.46720000
H       -0.47910000      -0.40040000       0.34880000
H       -0.14910000      -2.47580000      -0.74000000
H        0.48630000      -3.75770000      -2.61150000
H       -0.26150000      -2.25000000      -3.20570000
H        1.04010000      -0.93770000      -4.66210000
H        2.12370000      -0.45870000      -3.33290000
H        2.78530000      -1.29510000      -4.76820000
H        3.83420000      -3.06550000       0.47990000
