22
Properties=species:S:1:pos:R:3 gdb_57362=T pbc="F F F"
C       -0.38800000       1.50180000      -0.07540000
C       -0.00650000       0.01180000       0.00010000
C        0.93220000      -0.19930000       1.20550000
C       -1.29530000      -0.81230000       0.19020000
C        0.71980000      -0.48540000      -1.27740000
C        0.47350000       0.13360000      -2.61760000
N        1.75910000       0.34320000      -1.94180000
C        1.05260000      -1.89520000      -1.26670000
C        1.31040000      -3.06980000      -1.26460000
H        0.47690000       2.15590000      -0.23030000
H       -1.12130000       1.70470000      -0.86110000
H       -0.84100000       1.80290000       0.87410000
H        0.43670000       0.10140000       2.13430000
H        1.22340000      -1.24880000       1.29760000
H        1.84700000       0.39430000       1.10330000
H       -1.97860000      -0.67360000      -0.65440000
H       -1.07430000      -1.87910000       0.27360000
H       -1.81630000      -0.49910000       1.10100000
H        0.52060000      -0.49550000      -3.50120000
H       -0.22750000       0.95940000      -2.68310000
H        1.77430000       1.26600000      -1.51460000
H        1.55030000      -4.10430000      -1.26760000
