21
Properties=species:S:1:pos:R:3 gdb_109261=T pbc="F F F"
C        0.04730000       1.37620000      -0.22900000
C        0.05500000      -0.13110000       0.08200000
C        0.73720000      -0.47290000       1.37390000
C        0.18160000      -0.96400000       2.48640000
C        1.16470000      -1.22070000       3.60610000
C        2.52490000      -0.94270000       2.94110000
C        3.17330000      -2.08530000       2.12610000
O        2.98190000      -1.38740000       0.87530000
C        2.23260000      -0.33600000       1.54730000
H        1.06310000       1.77810000      -0.29790000
H       -0.45090000       1.57150000      -1.18350000
H       -0.48060000       1.93400000       0.55100000
H       -0.97480000      -0.50480000       0.10290000
H        0.56610000      -0.66170000      -0.73220000
H       -0.87890000      -1.17260000       2.59590000
H        0.98360000      -0.55900000       4.46370000
H        1.09400000      -2.24580000       3.99410000
H        3.22440000      -0.39810000       3.57520000
H        4.23510000      -2.27760000       2.31930000
H        2.62610000      -3.03720000       2.15700000
H        2.63440000       0.64870000       1.28190000
