15
Properties=species:S:1:pos:R:3 gdb_7865=T pbc="F F F"
N       -0.33050000       1.23310000      -0.06050000
C       -0.05900000      -0.10430000      -0.08830000
O        0.99180000      -0.60450000      -0.40110000
O       -1.18250000      -0.79800000       0.27340000
C       -1.08330000      -2.21170000       0.21910000
C       -2.22990000      -2.95280000       0.84630000
C       -2.10120000      -2.87630000      -0.66450000
O       -2.98630000      -2.08280000      -1.39040000
H        0.46560000       1.84580000      -0.10560000
H       -1.14420000       1.55370000       0.43660000
H       -0.06430000      -2.56890000       0.27890000
H       -2.02010000      -3.88420000       1.36090000
H       -3.01780000      -2.34800000       1.28200000
H       -1.80640000      -3.76970000      -1.20740000
H       -2.71540000      -1.16540000      -1.26430000
