17
Properties=species:S:1:pos:R:3 gdb_46327=T pbc="F F F"
O       -0.24600000       0.06240000      -0.35450000
C       -0.14620000       1.22040000      -0.08550000
C       -1.07270000       2.34210000       0.39120000
O        0.04740000       3.24980000       0.37080000
C        0.99600000       2.24430000      -0.08620000
C        2.19260000       2.03700000       0.86810000
C        3.41860000       2.15810000      -0.05590000
O        2.98990000       2.97640000      -1.13380000
C        1.67270000       2.55830000      -1.43580000
H       -1.86770000       2.61980000      -0.31250000
H       -1.50230000       2.21000000       1.39220000
H        2.16040000       2.84690000       1.60120000
H        2.15040000       1.08280000       1.39870000
H        4.27780000       2.64060000       0.41520000
H        3.72910000       1.16610000      -0.42180000
H        1.68180000       1.64560000      -2.05540000
H        1.15730000       3.35860000      -1.97010000
