21
Properties=species:S:1:pos:R:3 gdb_73371=T pbc="F F F"
C       -0.04760000       1.45430000       0.04200000
C        0.06310000      -0.05380000       0.03730000
C        0.70210000      -0.69920000      -1.20210000
C        0.72890000      -2.20730000      -0.82370000
C        0.43470000      -2.18560000       0.68080000
C       -1.00440000      -1.71870000       1.07620000
C       -0.38000000      -0.96600000       2.27220000
C        0.75490000      -0.75880000       1.24050000
O       -1.26520000      -0.66160000       0.14080000
H        0.93730000       1.91480000      -0.08740000
H       -0.69200000       1.79200000      -0.77580000
H       -0.47910000       1.81380000       0.98060000
H        0.11330000      -0.48970000      -2.09890000
H        1.71360000      -0.30710000      -1.36260000
H       -0.02570000      -2.77890000      -1.37220000
H        1.69950000      -2.66520000      -1.03470000
H        0.80640000      -3.02330000       1.27110000
H       -1.86840000      -2.37980000       1.14470000
H       -0.92590000      -0.09740000       2.64840000
H       -0.07740000      -1.62130000       3.09200000
H        1.75940000      -0.42580000       1.50240000
