17
Properties=species:S:1:pos:R:3 gdb_29458=T pbc="F F F"
N        0.02630000       1.43400000       0.15490000
C        0.04210000       0.02880000       0.03970000
C       -1.05130000      -0.81940000       0.01500000
N       -0.59500000      -2.13690000      -0.01460000
C        0.76120000      -2.12030000      -0.02000000
C        1.19500000      -0.80930000       0.01800000
C        2.65650000      -0.82790000       0.02320000
C        3.08640000      -2.10590000      -0.01360000
C        1.91060000      -3.07950000      -0.04350000
H        0.74870000       1.86790000      -0.40690000
H       -0.86630000       1.82920000      -0.11380000
H       -2.10700000      -0.60070000       0.02450000
H       -1.18910000      -2.94610000      -0.03610000
H        3.29600000       0.04580000       0.05680000
H        4.11560000      -2.43860000      -0.01790000
H        1.93050000      -3.75920000       0.81950000
H        1.93510000      -3.71440000      -0.93990000
