14
Properties=species:S:1:pos:R:3 gdb_28150=T pbc="F F F"
O        0.03770000       1.27190000       0.00740000
C       -0.05560000      -0.05580000       0.00060000
N       -1.14430000      -0.75490000       0.00320000
C       -0.65420000      -2.05570000      -0.00680000
C        0.69570000      -2.05430000      -0.01460000
O        1.12950000      -0.74880000      -0.01000000
C        1.25360000      -3.38890000      -0.02530000
C        0.19480000      -4.23340000      -0.02390000
C       -1.13140000      -3.47330000      -0.01190000
H        0.97210000       1.51250000       0.00220000
H        2.30020000      -3.65740000      -0.03290000
H        0.24810000      -5.31330000      -0.03020000
H       -1.73180000      -3.73220000       0.86940000
H       -1.74210000      -3.72240000      -0.88890000
