19
Properties=species:S:1:pos:R:3 gdb_111071=T pbc="F F F"
C        0.00680000       1.63780000      -0.00230000
C        0.07320000       0.10960000      -0.11610000
C       -1.29700000      -0.54010000       0.01810000
C       -1.52150000      -2.07480000       0.13150000
C       -0.65040000      -2.54000000       1.31160000
C       -1.04850000      -1.38610000       2.26190000
O       -0.67030000      -1.13500000       3.37140000
C       -2.06070000      -0.64430000       1.37140000
O       -2.78650000      -1.79040000       0.82050000
H        0.99630000       2.08510000      -0.13230000
H       -0.65620000       2.06330000      -0.76340000
H       -0.37060000       1.94580000       0.97840000
H        0.49670000      -0.16920000      -1.08960000
H        0.76470000      -0.27830000       0.64030000
H       -1.99560000      -0.14490000      -0.72540000
H       -1.62510000      -2.72380000      -0.73750000
H       -0.97760000      -3.50850000       1.69730000
H        0.42740000      -2.57320000       1.13300000
H       -2.67710000       0.13770000       1.80950000
