17
Properties=species:S:1:pos:R:3 gdb_45409=T pbc="F F F"
N       -0.06730000       1.29160000      -0.02760000
C       -0.02480000       0.03000000       0.01470000
O        1.12740000      -0.70090000       0.05870000
C        0.87470000      -2.13760000       0.03120000
C        0.06720000      -2.43390000       1.31590000
N       -1.19280000      -1.66780000       1.26170000
C       -1.25140000      -0.85990000       0.00580000
C       -1.10920000      -1.77970000      -1.19520000
C        0.02850000      -2.47740000      -1.16670000
H        0.87970000       1.67720000      -0.03260000
H        1.85700000      -2.60730000       0.04060000
H       -0.11380000      -3.50960000       1.40980000
H        0.66560000      -2.11080000       2.17590000
H       -1.97860000      -2.30840000       1.24570000
H       -2.15050000      -0.24820000       0.00460000
H       -1.87560000      -1.85430000      -1.95790000
H        0.33050000      -3.23000000      -1.88460000
