19
Properties=species:S:1:pos:R:3 gdb_119554=T pbc="F F F"
O        0.07460000       1.46450000      -0.27600000
C        0.02590000       0.04760000      -0.25060000
C       -1.36120000      -0.48320000       0.14210000
C       -1.41390000      -1.98600000       0.13880000
C       -1.64180000      -2.81580000      -1.12440000
C       -2.57980000      -3.01530000       0.01060000
C       -1.93110000      -3.95160000       1.04120000
C       -0.82500000      -2.87360000       1.19460000
O        0.03770000      -2.69710000       2.01090000
H        0.01290000       1.77680000       0.63220000
H        0.27260000      -0.27930000      -1.26650000
H        0.78290000      -0.37570000       0.42450000
H       -1.61100000      -0.11160000       1.14530000
H       -2.10740000      -0.07190000      -0.54750000
H       -2.00710000      -2.22680000      -1.96030000
H       -0.94800000      -3.60330000      -1.40730000
H       -3.63420000      -2.77810000      -0.04220000
H       -2.48390000      -4.05410000       1.97930000
H       -1.63650000      -4.94410000       0.68740000
