17
Properties=species:S:1:pos:R:3 gdb_33118=T pbc="F F F"
O        0.13240000       1.41110000       0.07110000
C        0.06760000      -0.00460000       0.14060000
C       -1.36060000      -0.54180000      -0.04920000
C       -1.42430000      -2.03300000       0.01030000
C       -1.99260000      -2.83030000       0.96190000
N       -1.74380000      -4.13890000       0.55250000
C       -1.04960000      -4.04730000      -0.60680000
O       -0.66830000      -5.16590000      -1.24680000
N       -0.82890000      -2.81590000      -0.97740000
H       -0.10110000       1.66980000      -0.82610000
H        0.73530000      -0.48090000      -0.59130000
H        0.43130000      -0.27270000       1.13790000
H       -2.00970000      -0.10400000       0.71610000
H       -1.73370000      -0.19920000      -1.02450000
H       -2.53810000      -2.61220000       1.86420000
H       -2.03060000      -4.98930000       1.00520000
H       -0.19670000      -4.87500000      -2.03730000
