25
Properties=species:S:1:pos:R:3 gdb_85850=T pbc="F F F"
C       -0.81900000       1.40230000       0.15530000
C       -0.08610000       0.07370000      -0.03130000
C       -1.04960000      -0.94370000      -0.65840000
C        1.25860000       0.12700000      -0.82220000
C        1.85780000      -0.87680000       0.18900000
O        3.21060000      -0.78350000       0.56560000
C        0.72520000      -0.50980000       1.20780000
C        1.19920000       0.57170000       2.18620000
C        0.11950000      -1.66950000       1.99660000
H       -0.17090000       2.18700000       0.55380000
H       -1.21120000       1.75700000      -0.80500000
H       -1.67250000       1.29500000       0.83550000
H       -1.43040000      -0.55740000      -1.61060000
H       -0.57020000      -1.90480000      -0.86590000
H       -1.91210000      -1.13410000      -0.01040000
H        1.23870000      -0.16180000      -1.87670000
H        1.73960000       1.10830000      -0.74310000
H        1.73420000      -1.90670000      -0.15840000
H        3.39140000       0.13000000       0.80920000
H        1.65190000       1.43520000       1.68690000
H        0.36890000       0.94940000       2.79130000
H        1.94730000       0.15490000       2.86880000
H        0.85260000      -2.06470000       2.70920000
H       -0.75800000      -1.35130000       2.57230000
H       -0.18770000      -2.49630000       1.35080000
