17
Properties=species:S:1:pos:R:3 gdb_55192=T pbc="F F F"
O        0.49270000       0.78670000      -1.03300000
C       -0.06800000       1.08400000      -0.00930000
O        0.42400000       0.78970000       1.19600000
C       -1.41700000       1.81400000      -0.00820000
N       -2.57230000       0.98440000       0.45050000
C       -3.11090000       2.08810000       1.27960000
C       -2.75280000       1.92230000       2.77150000
N       -1.35700000       2.37580000       2.46680000
H       -1.00440000       3.10720000       3.07240000
H       -0.16310000       1.20130000       1.88450000
C       -1.76360000       2.84040000       1.10350000
H       -1.55230000       2.24810000      -1.00440000
H       -3.17600000       0.65600000      -0.29250000
H       -4.09180000       2.48230000       1.01060000
H       -3.29680000       2.62010000       3.41840000
H       -2.81160000       0.90930000       3.17720000
H       -1.63600000       3.90270000       0.89820000
