20
Properties=species:S:1:pos:R:3 gdb_112513=T pbc="F F F"
C        0.15670000       1.48130000       0.17020000
C       -0.05210000      -0.02770000       0.00400000
C        0.65910000      -0.58420000      -1.22170000
C        2.21470000      -0.58650000      -1.26970000
C        2.14440000      -1.96270000      -2.00040000
C        3.07630000      -3.01320000      -1.64110000
N        3.77140000      -3.88130000      -1.32170000
C        0.67860000      -2.12180000      -1.44710000
O        0.63130000      -2.78300000      -0.20860000
H        1.21860000       1.72780000       0.27820000
H       -0.22500000       2.03560000      -0.69480000
H       -0.36050000       1.85440000       1.05910000
H        0.30300000      -0.55900000       0.89230000
H       -1.12480000      -0.24550000      -0.07500000
H        0.27000000      -0.10780000      -2.12980000
H        2.72150000       0.21940000      -1.80210000
H        2.64800000      -0.69220000      -0.27310000
H        2.13430000      -1.83470000      -3.08640000
H       -0.04870000      -2.53710000      -2.15680000
H        0.95260000      -3.68490000      -0.32450000
