10
Properties=species:S:1:pos:R:3 gdb_133473=T pbc="F F F"
F       -0.45240000       0.18050000      -0.29820000
C       -0.02170000       1.40190000       0.02930000
F        1.29970000       1.32680000       0.21020000
F       -0.25650000       2.22080000      -1.00780000
C       -0.71700000       1.92690000       1.24150000
C       -1.48560000       3.03580000       1.39220000
O       -1.89480000       3.10260000       2.64810000
N       -1.33160000       1.94730000       3.31440000
N       -0.66850000       1.30790000       2.46790000
H       -1.79660000       3.81280000       0.71370000
