22
Properties=species:S:1:pos:R:3 gdb_98589=T pbc="F F F"
C       -0.22470000       1.38390000      -0.10230000
C       -0.08720000      -0.13730000      -0.15280000
C        0.64380000      -0.61620000      -1.40360000
O        0.79410000       0.07640000      -2.39050000
N        1.21150000      -1.87340000      -1.29360000
C        0.64110000      -3.17390000      -0.99090000
C       -0.84930000      -3.39800000      -0.87260000
C        1.33210000      -2.89170000      -2.30980000
C        0.60500000      -2.78710000      -3.63090000
H        0.75550000       1.86380000      -0.03320000
H       -0.70590000       1.75530000      -1.00950000
H       -0.81850000       1.68960000       0.76390000
H        0.42940000      -0.52570000       0.73160000
H       -1.08070000      -0.60610000      -0.14980000
H        1.22070000      -3.73690000      -0.25820000
H       -1.41690000      -2.83440000      -1.61630000
H       -1.07620000      -4.46140000      -1.00420000
H       -1.20970000      -3.10520000       0.11900000
H        2.34540000      -3.28380000      -2.40270000
H       -0.42780000      -2.45310000      -3.51690000
H        1.10800000      -2.06440000      -4.27790000
H        0.60170000      -3.76100000      -4.13150000
