19
Properties=species:S:1:pos:R:3 gdb_38365=T pbc="F F F"
C       -0.31470000       1.36080000      -0.00190000
C        1.19050000       1.70010000      -0.06030000
C        1.41700000       0.27800000       0.49720000
N       -0.00040000      -0.08560000       0.21050000
C       -0.20040000      -0.95060000      -0.94700000
C        0.11140000      -0.37640000      -2.34740000
N        1.49850000      -0.05870000      -2.64510000
C        2.11050000       0.95670000      -2.22010000
O        1.75030000       1.95570000      -1.35520000
H       -0.80770000       1.78810000       0.87850000
H       -0.90460000       1.60760000      -0.88720000
H        1.52470000       2.54300000       0.54880000
H        2.17290000      -0.33860000       0.00560000
H        1.61020000       0.28560000       1.57590000
H        0.39440000      -1.85680000      -0.78520000
H       -1.25280000      -1.26300000      -0.96540000
H       -0.20410000      -1.13500000      -3.07250000
H       -0.52170000       0.50350000      -2.52960000
H        3.11090000       1.16250000      -2.60550000
