19
Properties=species:S:1:pos:R:3 gdb_110719=T pbc="F F F"
C       -0.03870000       1.31410000      -0.17540000
O       -0.05240000      -0.01620000       0.29110000
C       -1.27950000      -0.65980000       0.12660000
C       -1.64160000      -1.21620000      -1.31120000
C       -0.51920000      -2.25580000      -1.44820000
C       -0.30760000      -2.77640000      -0.24150000
C       -1.28740000      -2.09810000       0.73220000
C       -2.71620000      -2.47340000       0.31040000
C       -2.92520000      -1.94890000      -0.89940000
H        0.93050000       1.74090000       0.09350000
H       -0.15700000       1.37230000      -1.26740000
H       -0.83420000       1.91720000       0.28980000
H       -2.09250000      -0.03490000       0.52340000
H       -1.74190000      -0.50020000      -2.12660000
H       -0.03840000      -2.51180000      -2.38230000
H        0.38310000      -3.55880000       0.04140000
H       -1.05520000      -2.18540000       1.79290000
H       -3.39250000      -3.06870000       0.90870000
H       -3.81540000      -2.01250000      -1.51080000
