20
Properties=species:S:1:pos:R:3 gdb_94990=T pbc="F F F"
C       -0.05890000       1.52980000      -0.05260000
C        0.01150000       0.01090000      -0.00420000
O        0.65680000      -0.41590000      -1.20140000
C        0.76850000      -1.82200000      -1.28780000
C        1.24850000      -2.49270000      -0.01700000
C        2.25610000      -2.00150000       0.94950000
C        2.32930000      -0.48440000       1.06800000
C        0.78250000      -0.51590000       1.19900000
N        0.76920000      -2.03570000       1.30320000
H        0.94530000       1.96460000      -0.03950000
H       -0.55680000       1.85280000      -0.97060000
H       -0.61820000       1.91720000       0.80390000
H       -1.00930000      -0.41000000       0.03090000
H       -0.21080000      -2.26210000      -1.54630000
H        1.45470000      -2.03080000      -2.11580000
H        1.19710000      -3.57870000      -0.08750000
H        2.95300000      -2.68960000       1.41950000
H        2.81110000      -0.17480000       1.99740000
H        2.76150000       0.06850000       0.23180000
H        0.39390000      -0.09080000       2.12650000
