15
Properties=species:S:1:pos:R:3 gdb_127254=T pbc="F F F"
C       -0.00810000       1.44570000       0.03550000
N       -0.00450000      -0.00220000      -0.03360000
C        0.00020000      -0.77060000      -1.16420000
C        0.00270000      -2.08940000      -0.74900000
N       -0.06110000      -3.25160000      -1.50740000
C       -0.00050000      -1.99610000       0.66970000
N       -0.00730000      -0.71630000       1.08470000
C        0.01440000      -3.09010000       1.56970000
N        0.03650000      -4.03700000       2.23750000
H        0.88300000       1.85590000      -0.44900000
H       -0.89980000       1.85180000      -0.45110000
H       -0.01010000       1.71970000       1.08930000
H       -0.00390000      -0.33160000      -2.14840000
H        0.40940000      -3.19890000      -2.39950000
H        0.22280000      -4.07870000      -0.99940000
