18
Properties=species:S:1:pos:R:3 gdb_65968=T pbc="F F F"
C       -0.28170000       1.60700000       0.08570000
C        0.05530000       0.12860000       0.04070000
N        1.30120000      -0.21740000      -0.72060000
C        1.80740000      -1.10290000       0.36430000
C        0.72630000      -0.52590000       1.27240000
C        0.77020000      -0.07330000       2.65920000
O        0.03720000      -1.24860000       2.26810000
C       -1.11900000      -0.72380000      -0.42120000
O       -2.21360000      -0.30100000      -0.68660000
H        0.58820000       2.18140000       0.41200000
H       -0.58340000       1.96050000      -0.90400000
H       -1.11780000       1.79030000       0.76680000
H        1.14010000      -0.68090000      -1.61010000
H        1.66870000      -2.17880000       0.19880000
H        2.85210000      -0.91680000       0.63430000
H        1.66220000      -0.26030000       3.25540000
H        0.16040000       0.76990000       2.97780000
H       -0.87260000      -1.80460000      -0.53870000
