18
Properties=species:S:1:pos:R:3 gdb_133849=T pbc="F F F"
C        6.01960000      -0.53740000      -0.99990000
C        4.58560000      -0.37320000      -0.64310000
C        3.92280000      -0.19350000       0.72230000
C        2.56230000       0.15680000       0.01540000
C        1.68000000      -1.03320000       0.37500000
C        2.79910000      -2.07070000       0.19160000
C        3.43000000      -1.65450000      -1.16330000
C        3.30440000      -0.23700000      -1.31400000
N        3.94960000      -1.62480000       0.94710000
H        6.51530000       0.44060000      -0.95370000
H        6.13800000      -0.92380000      -2.01560000
H        6.52000000      -1.20930000      -0.29930000
H        4.38130000       0.42000000       1.49420000
H        2.16650000       1.16530000       0.09860000
H        0.84030000      -1.17940000      -0.31060000
H        1.31670000      -1.00090000       1.40740000
H        2.58590000      -3.13040000       0.31280000
H        4.01800000      -2.34790000      -1.74730000
