14
Properties=species:S:1:pos:R:3 gdb_25062=T pbc="F F F"
N       -0.32640000       1.19390000       0.74540000
C       -0.11750000       0.03170000       0.29340000
N       -1.01480000      -0.77220000      -0.37740000
C       -0.41420000      -1.98060000      -0.71580000
C        0.84140000      -1.92590000      -0.25950000
C        1.99940000      -2.86420000      -0.28440000
C        1.66310000      -4.11380000      -0.96360000
N        1.38420000      -5.09610000      -1.50250000
O        1.05690000      -0.70640000       0.36460000
H        0.50280000       1.56660000       1.19850000
H       -1.95600000      -0.48320000      -0.57150000
H       -0.92760000      -2.76410000      -1.24550000
H        2.85870000      -2.40350000      -0.79050000
H        2.33360000      -3.09240000       0.73680000
