17
Properties=species:S:1:pos:R:3 gdb_49020=T pbc="F F F"
O       -0.10800000      -0.00530000      -0.14570000
C       -0.00500000       1.17510000       0.07540000
C        1.27770000       1.94130000       0.02560000
C        1.54680000       2.85280000      -1.20380000
O        2.84990000       2.25070000      -1.39160000
C        2.62820000       1.30300000      -0.31320000
C        3.18650000       1.68810000       1.07380000
C        3.12210000       3.17350000       1.27410000
C        1.85160000       2.38210000       1.40280000
H       -0.89930000       1.78820000       0.33810000
H        0.89070000       2.65560000      -2.06100000
H        1.59910000       3.93230000      -1.02360000
H        2.73050000       0.26220000      -0.62250000
H        3.79360000       1.04260000       1.69610000
H        3.52580000       3.52480000       2.21810000
H        3.30210000       3.83900000       0.43740000
H        1.28130000       2.36030000       2.32400000
