12
Properties=species:S:1:pos:R:3 gdb_131461=T pbc="F F F"
O        0.17170000       1.32480000       0.12020000
C        0.07760000      -0.00430000       0.07520000
N        0.07560000      -0.73260000      -1.00180000
O       -0.03780000      -2.03550000      -0.56440000
N       -0.11310000      -2.09870000       0.80530000
C       -0.03760000      -0.86540000       1.21290000
O       -0.07370000      -0.43190000       2.48160000
C        0.04810000      -1.35990000       3.49460000
N       -0.11680000      -0.95880000       4.67080000
H        0.23470000       1.65850000      -0.78490000
H        0.29220000      -2.35990000       3.13190000
H        0.02010000      -1.72590000       5.32650000
