16
Properties=species:S:1:pos:R:3 gdb_29278=T pbc="F F F"
C        0.30410000       1.47220000      -0.05710000
C        0.03070000       0.00690000      -0.03130000
C       -0.37140000      -0.82040000      -1.02720000
O       -0.48860000      -2.08680000      -0.52050000
C       -0.13960000      -1.95830000       0.78100000
N        0.17680000      -0.75080000       1.13000000
C       -0.16150000      -3.15070000       1.64250000
C       -1.02730000      -4.30870000       1.36170000
O        0.36950000      -4.36370000       1.09360000
H        1.33820000       1.68040000       0.23630000
H        0.13920000       1.88560000      -1.05530000
H       -0.34510000       2.00240000       0.64750000
H       -0.59770000      -0.69860000      -2.07240000
H        0.12980000      -2.93410000       2.66720000
H       -1.37500000      -4.92130000       2.19240000
H       -1.67040000      -4.28760000       0.48430000
