18
Properties=species:S:1:pos:R:3 gdb_91706=T pbc="F F F"
C       -0.21640000       1.53170000      -0.06430000
C        0.03730000       0.04040000       0.03920000
O        0.80840000      -0.41200000      -1.11530000
C        1.82690000      -1.25390000      -0.67240000
C        1.34570000      -1.81250000       0.66370000
C        0.86670000      -0.46850000       1.23470000
N        2.02960000       0.39570000       1.49330000
C        2.98350000       0.28630000       0.66420000
O        3.04490000      -0.49460000      -0.44160000
H        0.71720000       2.09470000      -0.01550000
H       -0.71870000       1.75850000      -1.00870000
H       -0.86280000       1.85960000       0.75600000
H       -0.92300000      -0.49640000       0.02600000
H        2.08720000      -1.96140000      -1.45890000
H        0.52340000      -2.51700000       0.51200000
H        2.13560000      -2.28540000       1.24880000
H        0.27010000      -0.54790000       2.14500000
H        3.90420000       0.85300000       0.78760000
