15
Properties=species:S:1:pos:R:3 gdb_43777=T pbc="F F F"
O        0.29100000       0.09760000      -0.22900000
C        0.18620000       1.26600000      -0.05750000
O       -0.99910000       1.99490000       0.07700000
C       -0.24010000       3.24000000       0.06520000
C        0.62570000       3.29700000       1.26330000
C        1.06890000       2.47960000       0.03410000
C       -0.75750000       4.34850000      -0.76830000
C       -1.37860000       5.53640000      -0.16350000
O       -0.03530000       5.57250000      -0.65260000
H        1.18940000       4.21550000       1.39130000
H        0.32270000       2.79030000       2.17360000
H        1.99620000       2.65830000      -0.48950000
H       -1.04020000       4.06700000      -1.78230000
H       -2.09970000       6.11170000      -0.74050000
H       -1.48180000       5.59060000       0.91830000
