18
Properties=species:S:1:pos:R:3 gdb_24132=T pbc="F F F"
C       -0.11280000       1.66420000       0.17780000
N       -0.23500000       0.32180000      -0.39150000
C       -0.18760000      -0.78680000       0.56050000
C       -1.46890000      -0.39390000      -0.08790000
C        1.32190000       2.09150000       0.18300000
N        1.89320000       2.93040000       1.01990000
C        3.19880000       3.03730000       0.59370000
C        3.41460000       2.25000000      -0.50620000
N        2.20040000       1.65320000      -0.76150000
H       -0.71020000       2.34160000      -0.44730000
H       -0.50410000       1.74480000       1.20410000
H        0.34720000      -1.67230000       0.23000000
H       -0.06210000      -0.54380000       1.61370000
H       -2.20790000       0.10920000       0.53300000
H       -1.88310000      -0.98720000      -0.89790000
H        3.90720000       3.66970000       1.10700000
H        4.28650000       2.05540000      -1.10800000
H        1.97400000       0.97410000      -1.46970000
