22
Properties=species:S:1:pos:R:3 gdb_10861=T pbc="F F F"
C       -0.03700000       1.56750000       0.02830000
C        0.02520000       0.03760000       0.01050000
C        0.73250000      -0.49040000      -1.24980000
C        0.81110000      -2.02490000      -1.27150000
C        1.47940000      -2.58750000      -0.00660000
O        2.88380000      -2.33280000       0.01020000
C        0.78630000      -2.05520000       1.25800000
C        0.70780000      -0.52060000       1.27150000
H        0.97060000       2.00050000       0.04330000
H       -0.55060000       1.95660000      -0.85740000
H       -0.56800000       1.93540000       0.91270000
H       -1.00640000      -0.34700000      -0.00420000
H        0.22050000      -0.12910000      -2.14930000
H        1.74640000      -0.06390000      -1.29620000
H       -0.20390000      -2.43770000      -1.34470000
H        1.36380000      -2.37140000      -2.15090000
H        1.40890000      -3.68060000      -0.02040000
H        3.01740000      -1.38000000       0.02280000
H       -0.22980000      -2.46940000       1.30140000
H        1.32170000      -2.42280000       2.13960000
H        1.72050000      -0.09550000       1.34800000
H        0.17820000      -0.18080000       2.16920000
