22
Properties=species:S:1:pos:R:3 gdb_62702=T pbc="F F F"
C       -0.22890000       1.61090000       0.03270000
C        0.00980000       0.10140000      -0.00160000
C       -1.29000000      -0.64160000       0.33390000
C        0.65590000      -0.52700000      -1.23840000
C        2.13850000      -0.42540000      -1.28740000
C        2.89820000       0.62800000      -0.49520000
C        2.41820000       0.37940000       0.95840000
C        1.20660000      -0.53350000       0.78270000
N        1.52860000      -1.44700000      -0.40450000
H        0.66720000       2.19070000      -0.19760000
H       -0.99650000       1.88760000      -0.69940000
H       -0.59070000       1.92830000       1.01780000
H       -2.08080000      -0.39160000      -0.38290000
H       -1.14220000      -1.72500000       0.31160000
H       -1.64720000      -0.36490000       1.33240000
H        0.09340000      -0.91180000      -2.08720000
H        2.60790000      -0.84300000      -2.17390000
H        3.97640000       0.47200000      -0.59550000
H        2.69030000       1.64280000      -0.84600000
H        3.19030000      -0.14130000       1.53340000
H        2.17350000       1.30040000       1.49530000
H        0.93350000      -1.09480000       1.67780000
