21
Properties=species:S:1:pos:R:3 gdb_97449=T pbc="F F F"
C       -0.93650000       0.52980000      -0.36350000
N        0.33150000      -0.12770000      -0.12580000
C        0.77530000      -0.86520000      -1.04280000
O        1.97250000      -1.47870000      -0.90530000
C        2.32780000      -2.40620000      -1.93230000
C        1.69280000      -3.75370000      -1.69630000
N        0.32450000      -3.93400000      -2.21450000
C        1.41730000      -4.74930000      -2.77000000
C        1.75550000      -4.56540000      -4.23130000
H       -0.80650000       1.61660000      -0.30000000
H       -1.38950000       0.29400000      -1.34060000
H       -1.64960000       0.25080000       0.42100000
H        0.26880000      -1.06680000      -1.99760000
H        2.04670000      -2.01120000      -2.91470000
H        3.41820000      -2.48070000      -1.88720000
H        1.91020000      -4.15730000      -0.70850000
H       -0.23910000      -4.47070000      -1.56160000
H        1.46270000      -5.78660000      -2.43890000
H        1.63940000      -3.52580000      -4.54420000
H        2.78460000      -4.87930000      -4.43630000
H        1.08930000      -5.17310000      -4.85260000
