23
Properties=species:S:1:pos:R:3 gdb_104854=T pbc="F F F"
C        1.04130000      -0.69430000      -0.84300000
C        0.02660000      -0.12690000       0.15640000
C       -1.46580000      -0.42970000      -0.07930000
C       -2.30480000       0.33010000       0.94460000
O       -2.13620000       1.72470000       0.72600000
C       -1.95260000      -0.27850000      -1.55690000
C       -1.91940000      -1.82350000      -1.71780000
C       -1.83570000      -1.94260000      -0.17340000
O       -0.89760000      -2.82200000       0.41000000
H        2.04830000      -0.35200000      -0.58270000
H        1.04420000      -1.78620000      -0.82940000
H        0.84450000      -0.35990000      -1.86710000
H        0.28350000      -0.49270000       1.15830000
H        0.12170000       0.96350000       0.19010000
H       -3.36400000       0.04650000       0.83170000
H       -1.99220000       0.04370000       1.96270000
H       -2.63290000       2.19820000       1.39920000
H       -2.96240000       0.13560000      -1.61370000
H       -1.31260000       0.29880000      -2.22620000
H       -2.77080000      -2.30100000      -2.21030000
H       -0.99700000      -2.17130000      -2.18850000
H       -2.83530000      -2.11520000       0.25550000
H       -1.20450000      -3.72360000       0.27190000
