15
Properties=species:S:1:pos:R:3 gdb_54623=T pbc="F F F"
N       -0.07330000       1.33800000      -0.02460000
C        0.02090000      -0.02860000      -0.04670000
O        1.08720000      -0.60830000      -0.12140000
C       -1.27680000      -0.76250000      -0.00710000
C       -1.38880000      -2.09460000       0.02880000
C       -2.82980000      -2.48780000       0.04990000
O       -3.31780000      -3.59580000       0.07920000
N       -3.51570000      -1.28840000       0.02710000
C       -2.65540000      -0.13290000      -0.01810000
H        0.79050000       1.85150000       0.04920000
H       -0.92150000       1.81340000       0.23080000
H       -0.57710000      -2.80660000       0.03800000
H       -4.52070000      -1.25230000       0.01390000
H       -2.80900000       0.52810000       0.84950000
H       -2.81270000       0.47180000      -0.92340000
