21
Properties=species:S:1:pos:R:3 gdb_94450=T pbc="F F F"
C       -0.34080000       1.47400000       0.00600000
C        0.16220000       0.04660000      -0.06160000
O        1.40530000      -0.06170000      -0.79270000
C        2.01270000      -0.83340000       0.25620000
C        0.78860000      -0.63780000       1.19690000
C        1.00040000       0.20780000       2.47750000
C        0.90640000      -0.78480000       3.66610000
C        0.21090000      -1.97700000       3.05580000
C        0.14520000      -1.88900000       1.72850000
H        0.39530000       2.13600000       0.47030000
H       -0.53680000       1.84040000      -1.00680000
H       -1.27630000       1.53130000       0.57310000
H       -0.60650000      -0.59140000      -0.52480000
H        2.19500000      -1.87340000      -0.04770000
H        2.95780000      -0.39340000       0.59990000
H        1.94030000       0.76590000       2.46160000
H        0.19380000       0.94250000       2.56200000
H        1.89770000      -1.06840000       4.04610000
H        0.36370000      -0.36320000       4.51970000
H       -0.15110000      -2.81160000       3.64630000
H       -0.27410000      -2.64000000       1.06650000
