15
Properties=species:S:1:pos:R:3 gdb_34903=T pbc="F F F"
N       -0.25800000      -1.20260000      -0.00050000
C       -0.14910000      -0.05210000       0.01630000
C       -0.02080000       1.39770000       0.05600000
C       -0.28560000       2.09740000       1.40080000
C        0.73920000       1.68880000       2.41760000
C        1.11090000       2.71680000       1.39000000
C        1.43430000       2.04310000       0.04470000
C        2.59450000       1.16470000      -0.00490000
N        3.52010000       0.47310000      -0.02990000
H       -0.60880000       1.82800000      -0.75710000
H       -1.23450000       2.54400000       1.66500000
H        0.57240000       2.08210000       3.41430000
H        1.17950000       0.69570000       2.39560000
H        1.42020000       3.72150000       1.64440000
H        1.49960000       2.76300000      -0.77350000
