23
Properties=species:S:1:pos:R:3 gdb_87212=T pbc="F F F"
C        0.35830000       0.80820000      -0.67140000
C        0.55590000      -0.35690000       0.26880000
N        1.74490000      -0.33770000       1.14950000
C        0.39770000      -0.30310000       1.74870000
C        0.03790000       0.97670000       2.47460000
C       -0.13750000      -1.54710000       2.45730000
N        0.40960000      -2.78780000       1.91730000
C        1.46010000      -3.44400000       2.69740000
C        0.08340000      -4.00400000       2.65130000
H        0.66820000       1.75260000      -0.21920000
H        0.95430000       0.66740000      -1.58000000
H       -0.69180000       0.89540000      -0.97280000
H        0.31630000      -1.32760000      -0.16190000
H        2.12010000      -1.28100000       1.20830000
H        0.44890000       1.85090000       1.96860000
H       -1.04960000       1.09760000       2.54740000
H        0.44180000       0.96530000       3.49370000
H        0.05550000      -1.45880000       3.54280000
H       -1.22820000      -1.57700000       2.33570000
H        2.26100000      -3.90320000       2.12490000
H        1.77520000      -2.96790000       3.62460000
H       -0.52110000      -3.90680000       3.55160000
H       -0.13900000      -4.87790000       2.04560000
