14
Properties=species:S:1:pos:R:3 gdb_9600=T pbc="F F F"
C        0.16260000       1.57130000      -0.02240000
C        0.03050000       0.07430000       0.03280000
O        1.19840000      -0.71830000      -0.18210000
C        0.63880000      -0.77870000       1.11360000
C        1.38570000      -0.15060000       2.25330000
O        2.29330000       0.62990000       2.13500000
C       -1.19690000      -0.53640000      -0.59210000
O       -2.17050000       0.09190000      -0.91220000
H        1.05920000       1.90110000       0.50110000
H        0.22250000       1.89050000      -1.06700000
H       -0.72350000       2.03890000       0.41420000
H        0.14180000      -1.71880000       1.36420000
H        1.01290000      -0.47190000       3.25080000
H       -1.11450000      -1.63620000      -0.73870000
