14
Properties=species:S:1:pos:R:3 gdb_57124=T pbc="F F F"
N       -0.11060000       1.26450000       0.08980000
C        0.02140000      -0.06500000      -0.10310000
O        1.05080000      -0.62130000      -0.43660000
C       -1.27360000      -0.91830000       0.05120000
O       -0.92720000      -2.27170000      -0.03210000
C       -1.98280000      -0.59750000       1.28930000
C       -2.58330000      -0.31070000       2.30080000
C       -3.25350000       0.01010000       3.44040000
C       -3.84800000       0.29820000       4.45100000
H        0.71770000       1.83700000       0.05350000
H       -0.93010000       1.63170000       0.54490000
H       -1.92510000      -0.63720000      -0.79600000
H        0.02390000      -2.26000000      -0.24590000
H       -4.37180000       0.54540000       5.34100000
