19
Properties=species:S:1:pos:R:3 gdb_111176=T pbc="F F F"
C        0.45740000       1.52250000      -0.36190000
C        0.00450000       0.07560000      -0.12560000
C        0.69450000      -0.53780000       1.07890000
C        0.82740000      -2.06380000       1.32940000
C        1.90530000      -2.03950000       0.22770000
N        2.24050000      -0.75950000       1.02360000
C        2.01320000      -1.67360000       2.25340000
C        1.77680000      -1.01790000       3.53280000
N        1.60050000      -0.53640000       4.56890000
H        1.53190000       1.56520000      -0.56060000
H       -0.06840000       1.96230000      -1.21400000
H        0.25760000       2.14710000       0.51510000
H       -1.07470000       0.05200000       0.07410000
H        0.15440000      -0.51180000      -1.03630000
H        0.43260000       0.04740000       1.96640000
H        0.04850000      -2.80710000       1.52750000
H        2.69740000      -2.79180000       0.26820000
H        1.60370000      -1.85350000      -0.80060000
H        2.80880000      -2.41420000       2.36780000
