17
Properties=species:S:1:pos:R:3 gdb_23305=T pbc="F F F"
N        0.07690000       1.34460000       0.12960000
C       -0.02560000      -0.01980000       0.03270000
C       -1.14840000      -0.78110000      -0.04130000
C       -0.78680000      -2.18890000      -0.01330000
N       -1.51030000      -3.24740000       0.01880000
O       -2.88510000      -2.91250000      -0.00160000
C        0.70960000      -2.29050000      -0.01320000
C        1.43480000      -1.69440000      -1.19950000
C        1.20980000      -0.86250000       0.04930000
H        0.93090000       1.76190000      -0.20670000
H       -0.74900000       1.88290000      -0.08390000
H       -2.16320000      -0.42410000      -0.13340000
H       -3.29860000      -3.78000000       0.04410000
H        1.18540000      -3.09110000       0.53730000
H        2.44340000      -2.05100000      -1.38230000
H        0.86500000      -1.44640000      -2.08820000
H        2.05480000      -0.56310000       0.65940000
