21
Properties=species:S:1:pos:R:3 gdb_114391=T pbc="F F F"
C       -0.07600000       1.47360000      -0.23280000
C       -0.03200000      -0.02080000       0.09720000
C       -1.41940000      -0.63290000       0.18500000
O       -2.10860000      -0.57280000      -1.10930000
C       -2.08240000      -1.99720000      -1.20360000
C       -1.47300000      -2.15700000       0.17690000
C       -2.87850000      -2.64850000      -0.10160000
C       -4.13730000      -2.05290000       0.47850000
O       -2.85900000      -4.05440000      -0.16790000
H        0.93230000       1.88670000      -0.32880000
H       -0.60530000       1.63850000      -1.17530000
H       -0.59600000       2.03790000       0.54920000
H        0.54300000      -0.56120000      -0.66410000
H        0.47480000      -0.18740000       1.05740000
H       -2.01170000      -0.12650000       0.95930000
H       -1.86590000      -2.45530000      -2.16290000
H       -0.70350000      -2.82840000       0.53440000
H       -4.13290000      -0.96440000       0.39570000
H       -5.01300000      -2.41900000      -0.07190000
H       -4.25780000      -2.33520000       1.52910000
H       -3.55290000      -4.32750000      -0.77880000
