18
Properties=species:S:1:pos:R:3 gdb_14053=T pbc="F F F"
C       -0.01740000       1.48790000      -0.14600000
O        1.23500000       1.61260000       0.55680000
C        1.46060000       0.18940000       0.49610000
C        0.02390000      -0.05680000      -0.01370000
C       -0.97400000      -0.71300000       0.94620000
C       -2.03820000      -1.25910000      -0.01460000
C       -1.16940000      -1.68860000      -1.20010000
O       -0.07600000      -0.76790000      -1.23550000
H       -0.83180000       2.02220000       0.35860000
H        0.05550000       1.82010000      -1.18960000
H        2.22580000      -0.08270000      -0.24220000
H        1.72340000      -0.23050000       1.47460000
H       -0.48420000      -1.53730000       1.47840000
H       -1.36050000      -0.01670000       1.69330000
H       -2.62600000      -2.07980000       0.40310000
H       -2.72940000      -0.46430000      -0.31560000
H       -0.78820000      -2.71140000      -1.06130000
H       -1.68880000      -1.64790000      -2.16260000
