15
Properties=species:S:1:pos:R:3 gdb_125703=T pbc="F F F"
C       -0.15520000       1.49390000       0.01470000
C       -0.00680000       0.00360000      -0.04140000
N        0.29150000      -0.52150000      -1.17670000
O        0.42530000      -1.93910000      -1.19650000
C        0.25440000      -2.72550000      -0.09620000
N        0.38050000      -3.98320000      -0.14740000
C       -0.09200000      -2.07310000       1.20500000
N       -0.28070000      -2.66960000       2.30780000
N       -0.19920000      -0.69540000       1.12080000
H        0.56020000       1.92630000       0.72250000
H        0.02520000       1.91120000      -0.97520000
H       -1.16370000       1.76890000       0.34210000
H        0.61680000      -4.29120000      -1.09150000
H       -0.15660000      -3.67220000       2.15980000
H       -0.43190000      -0.21180000       1.97620000
