16
Properties=species:S:1:pos:R:3 gdb_18280=T pbc="F F F"
O        0.11530000       1.32250000      -0.15390000
C        0.06930000      -0.08140000       0.00340000
C       -1.36810000      -0.57850000       0.11980000
O       -2.05660000      -0.13640000      -1.05970000
C       -3.02320000      -1.09920000      -1.46690000
C       -2.57410000      -2.40730000      -0.85490000
O       -1.19680000      -2.69900000      -1.10990000
C       -1.54720000      -2.08230000       0.13650000
H       -0.45690000       1.52340000      -0.90360000
H        0.54940000      -0.60580000      -0.83520000
H        0.62030000      -0.31790000       0.92010000
H       -1.83870000      -0.14660000       1.01810000
H       -4.02960000      -0.84460000      -1.09760000
H       -3.04540000      -1.11360000      -2.56150000
H       -3.24670000      -3.25700000      -0.77870000
H       -1.36350000      -2.66280000       1.03610000
