25
Properties=species:S:1:pos:R:3 gdb_102572=T pbc="F F F"
C        0.64680000       1.18200000       0.06200000
C        0.10730000      -0.24390000       0.19320000
C       -1.41190000      -0.33680000       0.01120000
O       -1.67810000       0.13240000      -1.30730000
C       -3.02730000       0.41820000      -1.58730000
C       -1.91400000      -1.75700000       0.21070000
C       -1.94440000      -2.38920000       1.58340000
C       -3.23690000      -2.14200000       0.84960000
C       -4.24130000      -1.14510000       1.38650000
H        1.73480000       1.20330000       0.17780000
H        0.39580000       1.59980000      -0.91560000
H        0.21850000       1.83860000       0.82830000
H        0.57870000      -0.89360000      -0.55460000
H        0.36080000      -0.65790000       1.17510000
H       -1.89580000       0.33740000       0.73930000
H       -3.44580000       1.14950000      -0.87800000
H       -3.06130000       0.84840000      -2.59200000
H       -3.66030000      -0.47980000      -1.56900000
H       -1.58860000      -2.41000000      -0.59630000
H       -1.57580000      -3.40230000       1.70120000
H       -1.73440000      -1.74330000       2.43180000
H       -3.69810000      -3.02380000       0.41080000
H       -3.75550000      -0.28060000       1.84830000
H       -4.90520000      -0.77200000       0.59920000
H       -4.86790000      -1.61250000       2.15450000
