17
Properties=species:S:1:pos:R:3 gdb_84337=T pbc="F F F"
C       -0.28750000       1.57250000      -0.04220000
C       -0.01490000       0.06030000      -0.03460000
C        0.78060000      -0.47150000      -1.19770000
C        1.85520000      -1.16890000      -0.83240000
C        2.00570000      -1.26850000       0.67210000
C        3.30530000      -0.86700000       1.18890000
C        4.38080000      -0.52320000       1.59960000
C        0.83270000      -0.36650000       1.17790000
O        0.63700000      -0.05330000       2.31790000
H        0.64380000       2.13590000      -0.15370000
H       -0.95190000       1.84380000      -0.86780000
H       -0.75790000       1.86970000       0.89850000
H       -0.98140000      -0.46010000       0.04980000
H        0.48650000      -0.28910000      -2.22550000
H        2.56840000      -1.63200000      -1.50300000
H        1.78800000      -2.29070000       1.02080000
H        5.32810000      -0.22090000       1.97220000
