18
Properties=species:S:1:pos:R:3 gdb_50837=T pbc="F F F"
O       -0.64230000       0.34290000      -0.21670000
C       -0.20120000       1.45670000      -0.26330000
N        1.13350000       1.83180000      -0.13040000
C        2.25210000       1.00700000       0.09240000
O        2.17940000      -0.19280000       0.17580000
C        3.54310000       1.78220000       0.27200000
C        3.96750000       2.07060000       1.75460000
C        5.42140000       1.68970000       1.37060000
C        4.86590000       0.99330000       0.10020000
H       -0.83130000       2.35640000      -0.42470000
H        1.31070000       2.82390000      -0.19110000
H        3.53620000       2.70580000      -0.31600000
H        3.78080000       3.07480000       2.14150000
H        3.52050000       1.33910000       2.43290000
H        6.02030000       2.57180000       1.12730000
H        5.98040000       1.07510000       2.07890000
H        4.67810000      -0.07090000       0.25680000
H        5.40670000       1.12920000      -0.83850000
