18
Properties=species:S:1:pos:R:3 gdb_18096=T pbc="F F F"
C        0.03080000       1.50050000      -0.04690000
C        1.53610000       1.90620000       0.06240000
C        2.15180000       0.66280000       0.63470000
C        1.32360000      -0.37720000       0.63740000
C       -0.02750000      -0.05710000       0.06750000
C        2.02430000      -1.59310000       1.15320000
O        3.34140000      -1.13220000       1.48400000
C        3.49500000       0.25360000       1.14850000
H       -0.52160000       1.94260000       0.78740000
H       -0.43330000       1.86770000      -0.96570000
H        1.96910000       2.14920000      -0.91820000
H        1.67760000       2.79610000       0.68680000
H       -0.86160000      -0.39220000       0.69500000
H       -0.16990000      -0.53650000      -0.91120000
H        1.55230000      -2.02210000       2.05110000
H        2.08780000      -2.40140000       0.40610000
H        4.29510000       0.37020000       0.39890000
H        3.80970000       0.81250000       2.04380000
