19
Properties=species:S:1:pos:R:3 gdb_102284=T pbc="F F F"
C        0.18600000       1.67830000       0.12180000
C       -0.00220000       0.16370000       0.00490000
N        0.59940000      -0.41100000      -1.19620000
C        2.05270000      -0.57050000      -1.24880000
C        2.53780000      -2.00890000      -0.97210000
O        2.16100000      -2.91290000      -1.87450000
O        3.21750000      -2.27950000      -0.01560000
C       -0.15660000      -0.82390000      -2.23750000
N        0.34110000      -1.46950000      -3.23490000
H       -0.35840000      -1.67700000      -3.93890000
H        1.57710000      -2.48230000      -2.56120000
H        1.24490000       1.95150000       0.14820000
H       -0.27770000       2.19560000      -0.72340000
H       -0.27450000       2.04260000       1.04520000
H        0.42290000      -0.34200000       0.87960000
H       -1.06850000      -0.08110000      -0.00790000
H        2.39780000      -0.26450000      -2.24320000
H        2.50500000       0.07450000      -0.49680000
H       -1.21380000      -0.55730000      -2.14360000
