18
Properties=species:S:1:pos:R:3 gdb_108811=T pbc="F F F"
C        0.02600000       1.36760000       0.01400000
O       -0.02190000      -0.06480000       0.04250000
C       -1.24730000      -0.58410000       0.02620000
N       -2.36060000       0.03480000      -0.00810000
C       -3.39770000      -1.01340000      -0.02120000
C       -4.33070000      -0.89340000      -1.22690000
C       -2.64490000      -2.35280000       0.00430000
N       -3.17780000      -3.50400000      -0.02330000
N       -1.30600000      -1.97190000       0.05680000
H        1.08460000       1.62670000       0.02680000
H       -0.45490000       1.74760000      -0.89080000
H       -0.48490000       1.78370000       0.88590000
H       -3.99470000      -0.93510000       0.89640000
H       -3.76090000      -0.94340000      -2.15970000
H       -5.05410000      -1.71230000      -1.21700000
H       -4.86020000       0.06220000      -1.19850000
H       -2.48340000      -4.25230000      -0.00140000
H       -0.50600000      -2.58120000       0.02470000
