16
Properties=species:S:1:pos:R:3 gdb_13999=T pbc="F F F"
C        0.10950000      -1.19390000      -0.21940000
C        0.08980000       0.00770000      -0.18000000
C        0.06900000       1.44410000      -0.16800000
O        0.28860000       2.10320000       1.10050000
C        1.28410000       2.23620000       0.11260000
C        2.72540000       1.74070000       0.21710000
C        3.11400000       2.87340000      -0.78310000
C        1.72660000       3.54530000      -0.54410000
H        0.12090000      -2.25560000      -0.24410000
H       -0.71220000       1.90600000      -0.77150000
H        3.13090000       1.90760000       1.21910000
H        2.91520000       0.70610000      -0.07610000
H        3.99190000       3.46870000      -0.52870000
H        3.22440000       2.50320000      -1.80460000
H        1.16600000       3.89210000      -1.41530000
H        1.77610000       4.35510000       0.19010000
