20
Properties=species:S:1:pos:R:3 gdb_120113=T pbc="F F F"
C       -0.05940000       1.51940000      -0.10770000
C       -0.13720000       0.00010000      -0.27780000
C        0.97190000      -0.55790000      -1.18010000
C        0.91530000      -2.06560000      -1.31010000
C        0.04690000      -2.82420000      -2.27160000
N       -0.07080000      -2.16770000      -3.57710000
C        1.32780000      -2.13190000      -3.75340000
O        2.00740000      -1.66450000      -4.62190000
C        1.55890000      -2.87660000      -2.44470000
H        0.89510000       1.81870000       0.33900000
H       -0.14570000       2.03150000      -1.07240000
H       -0.86060000       1.88970000       0.53910000
H       -0.08200000      -0.48330000       0.70660000
H       -1.11410000      -0.27760000      -0.69460000
H        0.91270000      -0.08890000      -2.16900000
H        1.95220000      -0.27640000      -0.77440000
H        1.02320000      -2.58620000      -0.35770000
H       -0.62210000      -3.63260000      -2.00700000
H       -0.67040000      -1.37140000      -3.76230000
H        2.25120000      -3.68670000      -2.26530000
