21
Properties=species:S:1:pos:R:3 gdb_105184=T pbc="F F F"
C        3.03470000      -1.75500000       0.52140000
C        1.77240000      -0.98760000       0.18520000
C        0.44400000      -1.65510000       0.05120000
C        0.68250000      -0.69680000       1.22130000
C        0.76020000      -1.29260000       2.62350000
O       -0.51220000      -1.58490000       3.16200000
C       -0.02300000       0.62440000       1.18770000
C       -0.00230000       1.47630000      -0.07070000
O       -0.60610000       1.03060000       2.17940000
H        2.83590000      -2.63640000       1.13530000
H        3.51340000      -2.10230000      -0.40050000
H        3.75600000      -1.12710000       1.05480000
H        1.94980000      -0.17210000      -0.51010000
H       -0.23020000      -1.35470000      -0.74290000
H        0.36110000      -2.70080000       0.32910000
H        1.30960000      -2.23700000       2.60220000
H        1.31940000      -0.60180000       3.27330000
H       -0.95550000      -0.72820000       3.22240000
H       -0.77320000       2.24260000       0.01550000
H        0.97160000       1.97120000      -0.16090000
H       -0.15640000       0.89550000      -0.98370000
