21
Properties=species:S:1:pos:R:3 gdb_122929=T pbc="F F F"
C        0.04240000       1.68050000       0.08950000
C        0.09920000       0.14960000      -0.06040000
C        0.81800000      -0.54320000       1.09280000
O        2.16130000      -0.10170000       1.11440000
C        2.93750000      -0.70510000       2.13520000
C        4.30580000      -0.04420000       2.10240000
O        4.21780000       1.34520000       2.34940000
C       -1.29730000      -0.40540000      -0.25040000
O       -1.79040000      -1.28310000       0.41170000
H        1.05330000       2.09040000       0.12260000
H       -0.48640000       2.14220000      -0.75040000
H       -0.47330000       1.96410000       1.01310000
H        0.64340000      -0.07370000      -0.99160000
H        0.31770000      -0.31070000       2.04640000
H        0.77120000      -1.63410000       0.96430000
H        2.46560000      -0.54350000       3.11740000
H        3.02350000      -1.79150000       1.96980000
H        4.94070000      -0.47300000       2.88460000
H        4.78030000      -0.25210000       1.13000000
H        3.53350000       1.67320000       1.75500000
H       -1.86870000       0.07720000      -1.07740000
