17
Properties=species:S:1:pos:R:3 gdb_113287=T pbc="F F F"
O        0.13560000       1.27620000      -0.28690000
C        0.07760000      -0.07990000       0.13530000
C       -1.35140000      -0.58330000       0.10050000
C       -1.94580000      -1.19850000      -1.11420000
C       -1.71250000      -2.09510000       0.11050000
C       -0.61240000      -3.10830000      -0.00510000
O        0.30040000      -3.04460000      -0.79250000
C       -2.83390000      -2.50120000       0.90970000
C       -3.75690000      -2.87060000       1.58680000
H       -0.08360000       1.29940000      -1.22420000
H        0.73050000      -0.72370000      -0.46320000
H        0.45070000      -0.08350000       1.16450000
H       -2.02820000       0.00000000       0.71750000
H       -2.97800000      -0.99170000      -1.36890000
H       -1.28270000      -1.42020000      -1.94490000
H       -0.70770000      -3.95590000       0.70420000
H       -4.57710000      -3.18850000       2.18170000
