17
Properties=species:S:1:pos:R:3 gdb_81975=T pbc="F F F"
O        0.07870000       1.41340000       0.10890000
C        0.01980000       0.01140000       0.03440000
C       -1.38200000      -0.57780000      -0.08690000
O       -1.90710000      -0.51060000      -1.43270000
C       -1.33340000      -1.75330000      -0.96570000
C        0.10140000      -1.96100000      -1.44030000
O        0.23750000      -2.42390000      -2.76010000
C        0.74430000      -0.56720000      -1.21020000
O        0.52250000       0.27210000      -2.34520000
H        0.19790000       1.72450000      -0.79890000
H        0.47580000      -0.38930000       0.94990000
H       -2.11980000      -0.44170000       0.69820000
H       -2.03120000      -2.58290000      -0.90270000
H        0.57150000      -2.70120000      -0.77860000
H        0.33690000      -1.63540000      -3.31090000
H        1.82630000      -0.61890000      -1.08110000
H       -0.44530000       0.30490000      -2.44280000
