11
Properties=species:S:1:pos:R:3 gdb_21814=T pbc="F F F"
O       -0.20050000       0.19500000       0.64610000
C       -0.00470000       1.06930000      -0.14760000
C        1.32220000       1.84110000      -0.17970000
N        1.33160000       2.88590000      -1.18270000
N        1.82580000       2.74100000      -2.40520000
N        1.58590000       3.86730000      -3.00080000
N        0.94310000       4.68950000      -2.14700000
N        0.77950000       4.07960000      -1.01420000
H       -0.75260000       1.38130000      -0.90680000
H        1.50020000       2.29240000       0.79860000
H        2.13720000       1.15100000      -0.40740000
