16
Properties=species:S:1:pos:R:3 gdb_27770=T pbc="F F F"
C        0.01710000       1.50300000       0.00680000
C       -0.03030000       0.00480000       0.00110000
C       -1.18740000      -0.69430000      -0.09910000
C       -1.17690000      -2.13200000      -0.10420000
N       -2.18380000      -2.89510000      -0.19830000
O        0.11710000      -2.70070000       0.00850000
C        1.19780000      -1.90180000       0.10940000
N        2.33610000      -2.62480000       0.25970000
N        1.20630000      -0.61200000       0.10370000
H        0.63870000       1.86110000      -0.82110000
H       -0.97930000       1.94050000      -0.07920000
H        0.48700000       1.86000000       0.92980000
H       -2.15210000      -0.21370000      -0.18130000
H       -1.90510000      -3.87560000      -0.17530000
H        2.31760000      -3.59850000       0.00820000
H        3.19960000      -2.12040000       0.14960000
