19
Properties=species:S:1:pos:R:3 gdb_89164=T pbc="F F F"
C        0.14330000       1.57600000       0.18280000
C        0.06660000       0.08070000       0.06680000
C       -1.20720000      -0.70950000      -0.26580000
C       -0.78530000      -1.77580000       0.80930000
O       -0.79850000      -3.13260000       0.50970000
C        0.53740000      -1.01290000       1.01520000
C        1.31670000      -0.75730000      -0.26270000
C        1.43740000      -1.62050000      -1.45510000
O        0.77110000      -2.59910000      -1.72900000
H        1.09290000       1.89850000       0.62130000
H        0.04460000       2.05830000      -0.79660000
H       -0.66610000       1.95340000       0.81800000
H       -2.12250000      -0.17180000      -0.00660000
H       -1.29510000      -1.08370000      -1.28840000
H       -1.39730000      -1.64900000       1.70760000
H       -0.30110000      -3.23400000      -0.31840000
H        1.06380000      -0.91220000       1.95890000
H        2.22120000      -0.17610000      -0.09510000
H        2.22170000      -1.28530000      -2.16770000
