17
Properties=species:S:1:pos:R:3 gdb_48791=T pbc="F F F"
O       -0.20750000       0.18750000      -0.76030000
C        0.03370000       0.99960000       0.10480000
C        1.18330000       1.91010000       0.08900000
C        2.09730000       2.05770000      -1.12340000
C        2.67900000       1.50740000       0.11910000
O        2.99860000       2.51090000       1.07250000
C        1.61270000       2.90110000       1.14550000
C        1.21090000       4.31050000       1.41200000
C        0.98500000       3.22310000       2.45890000
H       -0.61430000       1.08720000       1.00470000
H        1.87500000       1.33370000      -1.90030000
H        2.37760000       3.05430000      -1.44990000
H        3.12120000       0.52570000       0.24050000
H        2.00840000       5.02100000       1.59880000
H        0.35130000       4.71450000       0.88790000
H       -0.03040000       2.89450000       2.65330000
H        1.63870000       3.21720000       3.32400000
