21
Properties=species:S:1:pos:R:3 gdb_84693=T pbc="F F F"
C       -0.15110000       1.57570000       0.01020000
C        0.02320000       0.04790000      -0.02370000
C        0.68830000      -0.42070000      -1.29950000
C        1.81340000      -1.13750000      -1.30640000
C        2.48920000      -1.52680000      -0.00790000
C        1.66880000      -2.61390000       0.71620000
O        0.57270000      -1.91300000       1.31190000
C        0.79600000      -0.49850000       1.19860000
C        2.31020000      -0.37360000       0.99830000
H        0.81500000       2.09120000       0.00270000
H       -0.71440000       1.92290000      -0.86190000
H       -0.69640000       1.88920000       0.90690000
H       -0.97750000      -0.40380000       0.02800000
H        0.20650000      -0.14460000      -2.23520000
H        2.25130000      -1.47730000      -2.24080000
H        3.52800000      -1.82670000      -0.16020000
H        1.27770000      -3.38000000       0.03860000
H        2.26660000      -3.10830000       1.49660000
H        0.43110000      -0.03250000       2.11940000
H        2.84410000      -0.56770000       1.93350000
H        2.62300000       0.59360000       0.60100000
