18
Properties=species:S:1:pos:R:3 gdb_58215=T pbc="F F F"
C       -0.90880000       1.26500000       0.95750000
C       -0.27130000       0.10740000       0.19580000
O        0.27390000      -0.87060000       1.10650000
C       -1.22310000      -0.54130000      -0.85870000
O       -0.56270000      -0.78830000      -2.08180000
C       -1.83240000      -1.88900000      -0.38590000
O       -0.83080000      -2.88710000      -0.35520000
C       -2.52460000      -1.76560000       0.91250000
N       -3.03820000      -1.64320000       1.94140000
H       -0.19020000       1.69020000       1.66420000
H       -1.21580000       2.05570000       0.26670000
H       -1.79490000       0.93910000       1.51300000
H        0.58580000       0.47320000      -0.37810000
H       -0.25790000      -0.85900000       1.91110000
H       -2.03460000       0.15980000      -1.08160000
H       -0.10880000      -1.63670000      -1.97780000
H       -2.56590000      -2.20740000      -1.13310000
H       -0.16870000      -2.55480000       0.27750000
