10
Properties=species:S:1:pos:R:3 gdb_4640=T pbc="F F F"
O       -0.03000000      -0.06180000      -0.00050000
C       -0.01850000       1.14460000       0.00910000
C        1.18510000       1.96610000       0.00210000
C        1.33170000       3.29990000       0.01110000
O        2.65420000       3.61090000      -0.00130000
C        3.35810000       2.41120000      -0.01890000
O        4.53630000       2.31290000      -0.03300000
O        2.44550000       1.39860000      -0.01670000
H       -0.94740000       1.75360000       0.02440000
H        0.62360000       4.11130000       0.02570000
