14
Properties=species:S:1:pos:R:3 gdb_24978=T pbc="F F F"
N       -0.09050000       1.24100000       0.05450000
C       -0.01020000      -0.00720000       0.01850000
O        1.14480000      -0.79010000      -0.00980000
C        0.68950000      -2.08750000      -0.04450000
C       -0.62530000      -2.10490000      -0.03840000
C       -1.15910000      -3.49060000      -0.07560000
O        0.05980000      -4.26640000      -0.10400000
C        1.25820000      -3.46000000      -0.08700000
O       -1.12220000      -0.82570000       0.00070000
H        0.83190000       1.66760000       0.06200000
H       -1.74880000      -3.76670000       0.80920000
H       -1.75760000      -3.71540000      -0.96900000
H        1.85400000      -3.67000000      -0.98600000
H        1.86320000      -3.72130000       0.79220000
