21
Properties=species:S:1:pos:R:3 gdb_60406=T pbc="F F F"
C        0.11780000       1.05490000       0.48680000
C       -0.27940000      -0.39390000       0.21580000
O       -0.38980000      -1.04540000       1.46770000
C       -1.58860000      -0.44890000      -0.58260000
O       -1.96570000      -1.76270000      -1.00550000
C       -2.78340000      -2.47170000      -0.11710000
C       -3.04110000      -3.90680000      -0.50470000
C       -2.11720000      -3.58510000       0.64610000
O       -0.72700000      -3.72670000       0.49440000
H        1.05700000       1.08120000       1.04420000
H        0.24540000       1.61720000      -0.44310000
H       -0.64720000       1.55080000       1.09350000
H        0.50370000      -0.86910000      -0.39960000
H       -0.33980000      -2.00170000       1.31690000
H       -2.39480000      -0.00300000       0.01600000
H       -1.47820000       0.13330000      -1.50450000
H       -3.57790000      -1.88440000       0.33900000
H       -4.01500000      -4.33590000      -0.29660000
H       -2.58160000      -4.24650000      -1.42770000
H       -2.41550000      -3.81670000       1.66200000
H       -0.51500000      -3.35310000      -0.37320000
