15
Properties=species:S:1:pos:R:3 gdb_25774=T pbc="F F F"
C       -0.14290000       1.45260000       0.14040000
C        0.02170000      -0.05460000       0.14950000
O        1.10010000      -0.60300000       0.17600000
C       -1.22820000      -0.85590000       0.12350000
N       -1.35580000      -2.15390000       0.12730000
C       -2.71160000      -2.38040000       0.09340000
N       -3.21050000      -3.67040000       0.15110000
C       -3.36070000      -1.17420000       0.06820000
O       -2.40910000      -0.19480000       0.08620000
H        0.84470000       1.91340000       0.16040000
H       -0.68930000       1.77610000      -0.75140000
H       -0.72730000       1.78200000       1.00570000
H       -2.52380000      -4.35510000      -0.13360000
H       -4.09500000      -3.80810000      -0.31560000
H       -4.38850000      -0.85850000       0.04260000
