19
Properties=species:S:1:pos:R:3 gdb_90676=T pbc="F F F"
C       -0.10360000       1.46570000      -0.38590000
C        0.12990000       0.02290000       0.01910000
O        1.26210000      -0.39170000       0.19930000
C       -1.10250000      -0.80910000       0.14640000
C       -1.40890000      -2.00280000      -0.75660000
C       -0.15920000      -2.83820000      -1.04650000
C       -0.05150000      -3.13730000       0.49540000
O        1.14960000      -2.97690000       1.17350000
C       -1.24510000      -2.19250000       0.74600000
H        0.85130000       1.96710000      -0.54500000
H       -0.71260000       1.51670000      -1.29490000
H       -0.66270000       1.98570000       0.40090000
H       -1.99380000      -0.20450000       0.29880000
H       -2.31920000      -2.00160000      -1.34370000
H       -0.36180000      -3.72860000      -1.64530000
H        0.68880000      -2.30370000      -1.48070000
H       -0.38500000      -4.16210000       0.68600000
H        1.45050000      -2.07520000       0.97160000
H       -2.01080000      -2.34690000       1.49840000
