18
Properties=species:S:1:pos:R:3 gdb_62588=T pbc="F F F"
C        0.11960000       1.51000000       0.09880000
C        0.03740000      -0.00600000      -0.01010000
C       -1.39120000      -0.50100000       0.17600000
C        0.76230000      -0.72550000      -1.16280000
C        1.23410000      -1.75480000      -0.21510000
C        2.26370000      -0.77380000      -0.76850000
C        2.29820000      -0.20290000       0.60540000
O        3.08050000       0.36360000       1.30070000
N        0.96830000      -0.78720000       0.94880000
H        1.12410000       1.89120000      -0.09970000
H       -0.56680000       1.97250000      -0.61780000
H       -0.17180000       1.83250000       1.10350000
H       -2.03730000      -0.11060000      -0.61820000
H       -1.43970000      -1.59290000       0.15360000
H       -1.78550000      -0.16140000       1.13790000
H        0.47310000      -0.84090000      -2.20220000
H        1.25740000      -2.83130000      -0.15010000
H        3.05050000      -0.93340000      -1.49350000
