16
Properties=species:S:1:pos:R:3 gdb_125230=T pbc="F F F"
C        0.19930000       1.21070000       0.74830000
C       -0.04210000      -0.09990000       0.08800000
C       -0.53060000      -1.29290000       0.51940000
C       -0.49590000      -2.11360000      -0.64370000
N       -0.03280000      -1.46310000      -1.68570000
O        0.26280000      -0.18460000      -1.22220000
C       -0.90330000      -3.52690000      -0.78120000
C       -0.55110000      -4.53290000       0.23630000
O       -1.86950000      -3.99790000       0.16440000
H        1.25650000       1.48960000       0.69060000
H       -0.37750000       2.00500000       0.26360000
H       -0.09070000       1.16140000       1.79930000
H       -0.88550000      -1.55260000       1.50210000
H       -1.05410000      -3.85920000      -1.80630000
H       -0.44780000      -5.57530000      -0.06120000
H        0.03260000      -4.23060000       1.10420000
