17
Properties=species:S:1:pos:R:3 gdb_34269=T pbc="F F F"
C        0.06050000      -1.12490000       0.20830000
C        0.00180000       0.06710000       0.04970000
C       -0.10690000       1.48790000      -0.11180000
C       -1.37650000       2.21060000       0.40900000
C       -1.05450000       3.62670000      -0.03940000
C       -0.05260000       3.60450000      -0.94040000
C        1.36510000       3.79780000      -0.37730000
C        1.31070000       2.22820000      -0.32320000
C        0.26840000       2.16770000      -1.39270000
H        0.11610000      -2.17650000       0.34300000
H       -2.27060000       1.72390000      -0.00400000
H       -1.48040000       2.19670000       1.50000000
H       -1.18580000       4.45430000       0.65240000
H        2.14660000       4.09020000      -1.08870000
H        1.45720000       4.37540000       0.54620000
H        2.18750000       1.59120000      -0.24320000
H        0.29830000       1.75530000      -2.39230000
