16
Properties=species:S:1:pos:R:3 gdb_30390=T pbc="F F F"
C        0.01900000       1.41350000       0.00850000
N        0.03740000      -0.03850000       0.00500000
C       -1.08810000      -0.64740000       0.01090000
C       -1.12300000      -2.11100000       0.00770000
C       -2.29340000      -2.76320000       0.01370000
N       -3.48220000      -2.04110000       0.02310000
C       -3.41080000      -0.68090000       0.02590000
O       -4.62500000      -0.10300000       0.03520000
N       -2.33620000       0.01720000       0.02060000
H        1.04820000       1.78370000       0.00010000
H       -0.50320000       1.82660000      -0.86620000
H       -0.48690000       1.82210000       0.89470000
H       -0.18190000      -2.64330000       0.00030000
H       -2.39870000      -3.83980000       0.01190000
H       -4.38260000      -2.48970000       0.02800000
H       -4.45760000       0.85010000       0.03630000
