16
Properties=species:S:1:pos:R:3 gdb_116986=T pbc="F F F"
C        0.01720000       1.58480000      -0.05590000
C       -0.00050000       0.05540000       0.00270000
C        0.69050000      -0.57940000      -1.20460000
C        0.69070000      -2.09330000      -1.17660000
O        0.20110000      -2.76380000      -0.29620000
C        1.34060000      -2.74050000      -2.31580000
C        1.87630000      -3.28460000      -3.25450000
C        2.48120000      -3.89590000      -4.31440000
N        2.99690000      -4.41240000      -5.21790000
H        1.04180000       1.97210000      -0.07760000
H       -0.49620000       1.95650000      -0.94950000
H       -0.48210000       2.01470000       0.81720000
H        0.48810000      -0.29500000       0.91790000
H       -1.03130000      -0.31040000       0.05630000
H        0.22120000      -0.26530000      -2.14830000
H        1.73630000      -0.24960000      -1.28890000
