18
Properties=species:S:1:pos:R:3 gdb_56995=T pbc="F F F"
O        0.85270000      -0.04620000      -1.12210000
C       -0.07520000      -0.01520000      -0.03960000
C       -1.31010000      -0.74120000      -0.34980000
C       -2.29220000      -1.38930000      -0.59780000
C        0.56650000      -0.54980000       1.24760000
C        1.78760000       0.19240000       1.85110000
N        1.13660000       0.28060000       3.21050000
C       -0.06680000       1.10230000       3.00810000
C       -0.12270000      -0.31320000       2.58960000
H        0.95940000      -0.96700000      -1.38660000
H       -0.30930000       1.04760000       0.08960000
H       -3.17160000      -1.94050000      -0.82410000
H        0.78720000      -1.61230000       1.10660000
H        2.69560000      -0.40980000       1.90210000
H        2.02990000       1.16730000       1.41540000
H       -0.56590000       1.35960000       3.93740000
H       -0.04220000       1.90580000       2.27450000
H       -0.72540000      -1.04470000       3.11730000
