18
Properties=species:S:1:pos:R:3 gdb_11400=T pbc="F F F"
O        0.01850000       1.39530000       0.08000000
C        0.02820000      -0.02340000       0.02280000
C       -1.42120000      -0.50380000       0.03360000
C       -1.56780000      -2.04190000      -0.07390000
C       -2.71960000      -2.43960000       0.89070000
O       -2.48900000      -3.64700000       1.60740000
C       -2.86610000      -1.21650000       1.76630000
C       -2.16310000      -0.18110000       1.31190000
H        0.92830000       1.70420000       0.11420000
H        0.52910000      -0.38380000      -0.89030000
H        0.56150000      -0.45560000       0.88570000
H       -1.92140000      -0.00850000      -0.81070000
H       -1.73430000      -2.38740000      -1.09670000
H       -0.65210000      -2.53030000       0.28360000
H       -3.64660000      -2.63790000       0.33760000
H       -1.74660000      -3.48740000       2.20120000
H       -3.50340000      -1.22310000       2.64400000
H       -2.12170000       0.80730000       1.75460000
