18
Properties=species:S:1:pos:R:3 gdb_82273=T pbc="F F F"
C       -0.10560000       1.58930000      -0.06000000
C        0.01190000       0.05840000      -0.01280000
C        0.78740000      -0.53630000      -1.19250000
N        2.18390000      -0.07000000      -1.27470000
C        1.88170000      -1.39980000      -0.66020000
C        1.78390000      -1.31100000       0.81890000
C        0.78730000      -0.48450000       1.18440000
C        0.46380000      -0.19260000       2.58170000
O       -0.44750000       0.51760000       2.95050000
H        0.88730000       2.03960000      -0.13640000
H       -0.69100000       1.89940000      -0.93170000
H       -0.59920000       1.95870000       0.84040000
H       -1.00080000      -0.36650000       0.00590000
H        0.26620000      -0.77870000      -2.11270000
H        2.52130000      -0.22830000      -2.22280000
H        2.23780000      -2.29680000      -1.15380000
H        2.44190000      -1.83370000       1.50480000
H        1.12600000      -0.70100000       3.31860000
