23
Properties=species:S:1:pos:R:3 gdb_119875=T pbc="F F F"
C       -0.09390000       1.56050000       0.00300000
C       -0.12150000       0.03240000       0.08280000
C        0.85670000      -0.52290000       1.13700000
C        0.86630000      -2.01920000       1.22660000
C        1.86140000      -2.85300000       0.93380000
C        1.43570000      -4.27600000       1.14200000
O        0.10320000      -4.19330000       1.63760000
C       -0.33230000      -2.83070000       1.67990000
C       -0.83490000      -2.49780000       3.08610000
H        0.90480000       1.92570000      -0.26110000
H       -0.79450000       1.93200000      -0.75120000
H       -0.36700000       2.01270000       0.96310000
H       -1.14010000      -0.30340000       0.31240000
H        0.12820000      -0.39760000      -0.89480000
H        1.86940000      -0.16950000       0.90930000
H        0.59420000      -0.09530000       2.11520000
H        2.84930000      -2.57480000       0.58610000
H        1.45700000      -4.86060000       0.20700000
H        2.06900000      -4.81160000       1.86700000
H       -1.17260000      -2.71030000       0.97430000
H       -0.01740000      -2.55900000       3.81100000
H       -1.26310000      -1.49040000       3.12230000
H       -1.61220000      -3.20890000       3.37910000
