18
Properties=species:S:1:pos:R:3 gdb_98230=T pbc="F F F"
C       -1.02820000       1.26970000      -0.19570000
N       -0.23990000       0.04900000      -0.01120000
C       -0.10070000      -0.37290000       1.35960000
N        0.61750000      -1.49490000       1.55410000
O       -0.62040000       0.27380000       2.25170000
C        0.30210000      -0.59580000      -1.11290000
N        1.00800000      -1.66120000      -1.03250000
C        0.00980000       0.05240000      -2.47530000
O        0.48690000      -0.73290000      -3.54560000
H       -1.24750000       1.65090000       0.79870000
H       -0.47030000       2.02620000      -0.75460000
H       -1.97440000       1.07050000      -0.71030000
H        1.03620000      -1.97210000       0.75670000
H        0.73030000      -1.78540000       2.50930000
H        1.32100000      -1.91820000      -1.96700000
H       -1.06220000       0.26120000      -2.57600000
H        0.53070000       1.01360000      -2.54190000
H       -0.12640000      -1.46330000      -3.67910000
