15
Properties=species:S:1:pos:R:3 gdb_49329=T pbc="F F F"
O       -0.36860000       0.51510000       0.71630000
C        0.21900000       0.99300000      -0.21790000
C        1.34880000       1.99140000      -0.10650000
C        1.08530000       3.38670000      -0.72040000
O        0.78470000       3.83440000      -1.77750000
O        1.32390000       4.04350000       0.45270000
C        1.56870000       2.79330000       1.16420000
C        1.10980000       2.60860000       2.56300000
C        2.59560000       2.70960000       2.23480000
H       -0.02950000       0.72170000      -1.26610000
H        2.25200000       1.54760000      -0.54200000
H        0.64970000       3.46500000       3.04320000
H        0.69010000       1.64680000       2.82820000
H        3.20640000       1.81470000       2.29220000
H        3.10550000       3.62880000       2.50060000
