19
Properties=species:S:1:pos:R:3 gdb_111125=T pbc="F F F"
C        0.10600000       1.29580000      -0.24460000
O       -0.04190000       0.02670000       0.35190000
C       -1.33220000      -0.49470000       0.22660000
C       -1.62700000      -1.24070000      -1.11180000
O       -0.75910000      -2.31690000      -0.61260000
C       -1.37390000      -1.96940000       0.67900000
C       -2.82840000      -2.43130000       0.46440000
C       -3.91880000      -1.42070000       0.20350000
C       -3.02720000      -1.85970000      -0.93400000
H        1.12720000       1.62780000      -0.04490000
H       -0.04750000       1.26290000      -1.33340000
H       -0.59660000       2.03040000       0.18040000
H       -2.06390000       0.22380000       0.61240000
H       -1.33920000      -0.86070000      -2.09150000
H       -0.81810000      -2.32680000       1.54480000
H       -3.08410000      -3.45330000       0.71540000
H       -4.92540000      -1.82900000       0.17890000
H       -3.88440000      -0.41830000       0.61030000
H       -3.43800000      -2.44620000      -1.74680000
