19
Properties=species:S:1:pos:R:3 gdb_80892=T pbc="F F F"
C       -0.10960000       1.54260000      -0.03540000
C       -0.06960000       0.02250000      -0.02260000
C        1.16930000      -0.60370000      -0.70920000
O        1.95160000      -0.29490000       0.49660000
C        0.68020000      -0.61600000       1.18900000
C        0.59670000      -0.14860000       2.61330000
C        0.60930000      -2.14330000       0.88450000
O       -0.34570000      -2.53250000      -0.11610000
C        0.97280000      -2.13120000      -0.52810000
H        0.86630000       1.96660000       0.21260000
H       -0.40330000       1.90810000      -1.02530000
H       -0.84560000       1.91990000       0.68280000
H       -1.03560000      -0.41400000      -0.27420000
H        1.61250000      -0.22860000      -1.63130000
H        0.73080000       0.93370000       2.68260000
H       -0.37750000      -0.40820000       3.04010000
H        1.37300000      -0.62850000       3.21890000
H        0.89170000      -2.89600000       1.61310000
H        1.57340000      -2.87490000      -1.03900000
