20
Properties=species:S:1:pos:R:3 gdb_11969=T pbc="F F F"
C        0.35410000       1.52680000      -0.22200000
C        0.00240000       0.06480000       0.03970000
O       -1.39830000      -0.10540000       0.15810000
C        0.75310000      -0.93720000      -0.89770000
C        1.75190000      -1.23900000       0.25790000
C        0.76780000      -0.56150000       1.21780000
C        0.98600000      -0.00540000       2.59270000
C        0.10380000      -1.21640000       2.39110000
H        1.43720000       1.67290000      -0.27330000
H       -0.07000000       1.86200000      -1.17760000
H       -0.04090000       2.16570000       0.57400000
H       -1.82510000       0.41710000      -0.52900000
H        0.11100000      -1.79240000      -1.11860000
H        1.16390000      -0.53910000      -1.82960000
H        1.97650000      -2.29140000       0.44830000
H        2.69680000      -0.69600000       0.15400000
H        1.96040000      -0.14600000       3.05050000
H        0.50620000       0.93440000       2.84880000
H       -0.96810000      -1.08740000       2.48880000
H        0.47870000      -2.18360000       2.71160000
