17
Properties=species:S:1:pos:R:3 gdb_133875=T pbc="F F F"
C        0.44450000      -0.66750000      -1.54340000
C        1.09100000       0.69400000      -1.16480000
C        1.20860000       0.83560000       0.36360000
C        0.10340000       1.56320000      -0.36550000
C       -1.08740000       0.67810000      -0.07480000
C       -1.04460000      -0.11900000       1.26150000
O       -1.39590000      -1.39240000       0.52310000
C       -0.39890000      -0.69260000      -0.28980000
C        0.46350000      -0.34290000       0.94830000
H        1.18230000      -1.47180000      -1.61020000
H       -0.12700000      -0.60980000      -2.47390000
H        1.82360000       1.15270000      -1.81750000
H        2.04160000       1.34410000       0.83030000
H        0.07350000       2.63970000      -0.46790000
H       -2.05150000       0.84380000      -0.55170000
H       -1.57500000       0.02040000       2.20450000
H        0.98480000      -1.15500000       1.45120000
