18
Properties=species:S:1:pos:R:3 gdb_57939=T pbc="F F F"
C       -0.40620000       1.16800000       1.14340000
C       -0.14580000       0.14310000       0.02960000
O       -0.02500000      -1.17550000       0.50760000
C       -1.20120000       0.29110000      -1.08220000
O       -1.38390000       1.33850000      -1.65290000
C       -2.01840000      -0.96180000      -1.44560000
C       -3.06240000      -1.24350000      -0.36880000
N       -4.35160000      -1.22330000      -0.78140000
O       -2.75970000      -1.46440000       0.79810000
H        0.40610000       1.12710000       1.87300000
H       -0.47060000       2.17580000       0.72620000
H       -1.34490000       0.93850000       1.65750000
H        0.81110000       0.38410000      -0.45270000
H       -0.88520000      -1.41290000       0.90020000
H       -2.46900000      -0.79890000      -2.42560000
H       -1.34280000      -1.82130000      -1.47130000
H       -4.61200000      -0.98070000      -1.72050000
H       -5.07540000      -1.35820000      -0.09360000
