21
Properties=species:S:1:pos:R:3 gdb_70318=T pbc="F F F"
C        0.36700000       1.42590000      -0.28440000
C       -0.09180000       0.02430000       0.06090000
C       -1.59640000      -0.17760000      -0.10730000
N       -2.26480000      -1.28260000       0.58190000
C       -1.91950000      -2.67200000       0.29900000
C       -1.55680000      -2.04840000       1.60570000
C       -0.12190000      -1.72840000       2.00290000
C        0.62320000      -0.76370000       1.10000000
N        0.86430000      -1.03250000      -0.33130000
H        1.45580000       1.49250000      -0.22390000
H        0.07180000       1.69260000      -1.30640000
H       -0.07010000       2.16570000       0.39540000
H       -2.08160000       0.74170000       0.24650000
H       -1.83800000      -0.25500000      -1.17560000
H       -2.76750000      -3.35120000       0.23410000
H       -1.12680000      -2.90740000      -0.40670000
H       -2.18490000      -2.30370000       2.45840000
H       -0.14520000      -1.27800000       3.00310000
H        0.45090000      -2.65940000       2.11130000
H        1.48270000      -0.30210000       1.58440000
H        0.38780000      -1.87640000      -0.62990000
