18
Properties=species:S:1:pos:R:3 gdb_39547=T pbc="F F F"
C        0.00910000       1.51390000       0.06100000
C        1.32640000       2.23380000      -0.08710000
C        2.47750000       1.57790000      -0.23210000
C        2.48140000       0.07940000      -0.25960000
C        2.16880000      -0.71420000       1.02140000
C        1.29620000      -1.69740000       0.26440000
C        0.62620000      -0.68080000       1.13310000
N        0.07230000       0.04690000      -0.00910000
C        1.16860000      -0.56890000      -0.81620000
H       -0.45810000       1.76930000       1.02230000
H       -0.69020000       1.87490000      -0.70840000
H        1.29070000       3.32080000      -0.10560000
H        3.41460000       2.11470000      -0.35210000
H        3.36020000      -0.33720000      -0.75840000
H        2.80960000      -0.89700000       1.87500000
H        1.24080000      -2.77460000       0.22650000
H        0.09560000      -0.80120000       2.07000000
H        1.00180000      -0.67180000      -1.88730000
