23
Properties=species:S:1:pos:R:3 gdb_114122=T pbc="F F F"
C        0.03730000       1.54420000      -0.00300000
C        0.04220000       0.01760000       0.12940000
C       -1.35150000      -0.59290000       0.00990000
C       -2.09270000      -0.57150000      -1.37490000
C       -2.28300000      -2.09410000      -1.28020000
C       -3.52290000      -2.83460000      -1.67830000
O       -3.70150000      -2.88970000      -3.08970000
C       -0.93090000      -2.75800000      -1.20180000
C       -1.50260000      -2.12290000       0.03810000
H        1.04750000       1.95610000       0.08370000
H       -0.36740000       1.85750000      -0.97160000
H       -0.57910000       2.00680000       0.77610000
H        0.70250000      -0.41360000      -0.63320000
H        0.47210000      -0.26690000       1.09910000
H       -2.00110000      -0.14580000       0.77080000
H       -3.03330000      -0.01660000      -1.34740000
H       -1.51040000      -0.22070000      -2.23370000
H       -3.50770000      -3.84490000      -1.23580000
H       -4.41580000      -2.32660000      -1.29590000
H       -2.89170000      -3.25470000      -3.46200000
H       -0.94420000      -3.84450000      -1.19880000
H       -0.07020000      -2.32930000      -1.70910000
H       -1.70070000      -2.71420000       0.92540000
