21
Properties=species:S:1:pos:R:3 gdb_92849=T pbc="F F F"
C       -0.08030000       1.55610000       0.01600000
C        0.02220000       0.02460000       0.00760000
C        0.85470000      -0.53320000      -1.20340000
C        1.97730000      -1.34030000      -0.57820000
C        1.89440000      -1.31830000       0.75740000
C        2.62310000      -1.85800000       1.96330000
C        1.79550000      -1.30800000       3.17560000
C        0.67100000      -0.50580000       2.54350000
C        0.75450000      -0.53220000       1.20770000
H        0.91550000       2.01030000       0.05380000
H       -0.58520000       1.92030000      -0.88500000
H       -0.64230000       1.90980000       0.88620000
H       -0.99390000      -0.38590000      -0.02930000
H        0.23540000      -1.14550000      -1.87190000
H        1.24250000       0.28610000      -1.82510000
H        2.72850000      -1.84700000      -1.17360000
H        2.65570000      -2.95230000       1.96270000
H        3.66270000      -1.51670000       1.99760000
H        1.40930000      -2.12070000       3.80450000
H        2.41280000      -0.68710000       3.83790000
H       -0.07930000       0.00380000       3.13760000
