21
Properties=species:S:1:pos:R:3 gdb_95391=T pbc="F F F"
C       -0.21140000       1.52010000       0.04500000
C        0.03550000      -0.00100000      -0.01500000
C        0.79340000      -0.44320000      -1.27540000
C        2.25600000       0.01720000      -1.25850000
C        2.91600000      -0.25580000       0.06210000
C        2.26040000      -0.48730000       1.21160000
C        2.95050000      -0.78790000       2.51370000
C        0.77270000      -0.43250000       1.25390000
O        0.16590000      -0.66880000       2.28190000
H        0.72560000       2.08610000       0.07030000
H       -0.78210000       1.85000000      -0.82920000
H       -0.78010000       1.77480000       0.94320000
H       -0.93930000      -0.49810000       0.02080000
H        0.77470000      -1.53840000      -1.33180000
H        0.28470000      -0.07160000      -2.17210000
H        2.81980000      -0.47740000      -2.05850000
H        2.32890000       1.09250000      -1.48050000
H        4.00540000      -0.25870000       0.07080000
H        4.03690000      -0.79570000       2.39390000
H        2.68270000      -0.05030000       3.27720000
H        2.63150000      -1.75890000       2.90610000
