16
Properties=species:S:1:pos:R:3 gdb_39615=T pbc="F F F"
C        0.03340000       1.49200000      -0.05360000
C        1.46930000       1.98940000      -0.04560000
C        2.24770000       1.96720000       1.05310000
C        1.70240000       1.40600000       2.23150000
C        0.97030000       0.85970000       3.02520000
C       -0.23730000       0.11160000       3.36420000
O       -1.07330000       0.07970000       2.18570000
C       -0.48420000      -0.52660000       1.09530000
N       -0.02590000       0.02970000       0.06290000
H       -0.52620000       1.99140000       0.74750000
H       -0.42830000       1.75380000      -1.01030000
H        1.87540000       2.38670000      -0.97110000
H        3.26410000       2.34550000       1.03260000
H       -0.00710000      -0.90970000       3.69850000
H       -0.84200000       0.59110000       4.13830000
H       -0.46190000      -1.61780000       1.16600000
