15
Properties=species:S:1:pos:R:3 gdb_11326=T pbc="F F F"
C        0.01800000       1.41020000       0.00890000
N        0.02670000      -0.04490000       0.00450000
C       -1.08930000      -0.63810000       0.01100000
C       -1.27430000      -2.14440000       0.00780000
O       -2.69490000      -2.34750000       0.01780000
C       -3.34130000      -1.14630000       0.02630000
N       -4.58630000      -0.94610000       0.03630000
N       -2.38170000      -0.14470000       0.02210000
H        1.04560000       1.77990000       0.00100000
H       -0.49190000       1.82590000      -0.87380000
H       -0.47620000       1.82040000       0.90300000
H       -0.84490000      -2.60350000      -0.88740000
H       -0.83170000      -2.60880000       0.89390000
H       -5.09030000      -1.83010000       0.03740000
H       -2.64740000       0.82470000       0.02730000
