22
Properties=species:S:1:pos:R:3 gdb_63427=T pbc="F F F"
C        0.09310000       1.52730000       0.19650000
C       -0.00240000       0.01450000       0.02700000
C       -1.43070000      -0.40660000      -0.32770000
C        1.05490000      -0.63680000      -0.92450000
C        1.29980000      -1.74100000       0.13760000
C        2.75180000      -2.16430000       0.38950000
C        2.87760000      -3.10340000       1.50360000
N        2.95250000      -3.84480000       2.38720000
C        0.59310000      -0.84600000       1.18970000
H        1.11230000       1.83630000       0.45210000
H       -0.19350000       2.04750000      -0.72510000
H       -0.57180000       1.87800000       0.99450000
H       -1.75560000       0.06280000      -1.26330000
H       -1.51600000      -1.49120000      -0.45250000
H       -2.13240000      -0.10710000       0.45890000
H        0.71130000      -0.95740000      -1.91190000
H        1.93320000       0.00490000      -1.05430000
H        0.70570000      -2.63330000      -0.07810000
H        3.17410000      -2.63180000      -0.50840000
H        3.36880000      -1.28380000       0.60640000
H        1.31330000      -0.27760000       1.78760000
H       -0.11250000      -1.33100000       1.86860000
