17
Properties=species:S:1:pos:R:3 gdb_35395=T pbc="F F F"
C       -0.16600000      -1.28290000      -0.22930000
C       -0.08180000      -0.09260000      -0.07980000
C        0.01040000       1.34380000       0.07600000
C       -0.20530000       1.98410000       1.49980000
C        1.13900000       2.75630000       1.35740000
C        2.39360000       2.05240000       1.93360000
O        2.18030000       0.64290000       1.83050000
C        2.62460000       1.33660000       0.66190000
C        1.41580000       2.03570000      -0.00130000
H       -0.23210000      -2.33600000      -0.34600000
H       -0.65590000       1.82530000      -0.64760000
H       -1.08990000       2.62090000       1.55690000
H       -0.22280000       1.25730000       2.31090000
H        1.12810000       3.84320000       1.42660000
H        3.07820000       2.39160000       2.70320000
H        3.53130000       0.96970000       0.19450000
H        1.65720000       2.59100000      -0.90770000
