18
Properties=species:S:1:pos:R:3 gdb_85569=T pbc="F F F"
C       -0.00650000       1.56870000      -0.03960000
C        0.15940000       0.05060000      -0.01150000
C        0.99140000      -0.50460000      -1.18510000
C        1.05610000      -2.02620000      -1.19110000
O        1.07560000      -2.69220000      -2.20670000
N        1.05000000      -2.59570000       0.05660000
C        1.25940000      -1.89190000       1.30730000
C        0.77480000      -0.43740000       1.29060000
O        0.91060000       0.24860000       2.27380000
H        0.96750000       2.06710000      -0.01220000
H       -0.52620000       1.88050000      -0.95000000
H       -0.57510000       1.91280000       0.82670000
H       -0.83260000      -0.42560000      -0.06510000
H        0.57780000      -0.19420000      -2.14630000
H        2.01530000      -0.10910000      -1.13720000
H        1.13710000      -3.60210000       0.05480000
H        0.71850000      -2.40260000       2.11180000
H        2.31720000      -1.87060000       1.60940000
