19
Properties=species:S:1:pos:R:3 gdb_92951=T pbc="F F F"
C       -0.69040000       1.06520000       0.05070000
C        0.20080000      -0.16870000      -0.06500000
C        1.30720000      -0.07720000      -1.14690000
C        2.46700000      -0.81540000      -0.53320000
C        2.26740000      -1.10180000       0.75340000
C        0.94410000      -0.55230000       1.25250000
O        1.14990000       0.51880000       2.17700000
C        0.18850000      -1.60220000       2.07030000
O       -0.58610000      -2.40250000       1.61670000
H       -0.11390000       1.95140000       0.33270000
H       -1.18380000       1.27020000      -0.90480000
H       -1.46840000       0.92490000       0.80690000
H       -0.42220000      -1.03790000      -0.29930000
H        0.98730000      -0.51720000      -2.09840000
H        1.58490000       0.96250000      -1.37340000
H        3.36730000      -1.06060000      -1.08740000
H        2.96560000      -1.60090000       1.41610000
H        1.88920000       1.04480000       1.85460000
H        0.43910000      -1.56830000       3.15290000
