19
Properties=species:S:1:pos:R:3 gdb_35948=T pbc="F F F"
C        0.07790000      -1.26830000       0.23640000
C        0.00820000      -0.07300000       0.14540000
C       -0.05520000       1.38290000       0.00550000
O       -0.71560000       1.90020000       1.15760000
C       -1.31980000       3.16820000       0.97610000
C       -0.33730000       4.34030000       0.99440000
C        0.60880000       4.40950000      -0.21590000
C        1.59790000       3.27290000      -0.33120000
C        1.33060000       1.97200000      -0.23280000
H        0.12940000      -2.32530000       0.32450000
H       -0.68040000       1.60820000      -0.87900000
H       -1.90190000       3.17840000       0.03790000
H       -2.02940000       3.27080000       1.80350000
H       -0.92510000       5.26650000       1.03610000
H        0.24940000       4.28800000       1.91820000
H        0.00510000       4.45870000      -1.13570000
H        1.16020000       5.35440000      -0.17710000
H        2.63050000       3.55760000      -0.52090000
H        2.13380000       1.25020000      -0.34300000
