15
Properties=species:S:1:pos:R:3 gdb_10808=T pbc="F F F"
C       -0.05390000       1.53830000       0.04710000
C       -0.00680000       0.04350000      -0.02750000
C        0.02210000      -0.66100000      -1.15760000
N        0.06360000      -2.05860000      -1.12210000
C       -0.31460000      -2.79500000      -0.01440000
O       -0.51080000      -3.98170000      -0.04560000
O       -0.49350000      -2.07980000       1.11890000
C        0.04740000      -0.75000000       1.24900000
H        0.79850000       1.94160000       0.60990000
H       -0.03460000       1.98580000      -0.95040000
H       -0.96050000       1.88880000       0.55730000
H        0.01190000      -0.21800000      -2.14650000
H        0.06810000      -2.58670000      -1.97890000
H        1.08000000      -0.83240000       1.62410000
H       -0.54780000      -0.28070000       2.03840000
