18
Properties=species:S:1:pos:R:3 gdb_89679=T pbc="F F F"
C       -0.02780000       1.43030000       0.26400000
C        0.14210000      -0.03660000       0.02790000
N       -0.71510000      -1.03870000       0.64780000
C        0.74100000      -1.12470000       0.92560000
C        1.37490000      -1.83350000      -0.26570000
C        0.73060000      -0.74900000      -1.21170000
O       -0.19260000      -1.16670000      -2.17330000
C        1.23950000      -0.86130000       2.27610000
O        0.56920000      -0.34180000       3.14590000
H        0.84090000       1.98970000      -0.09680000
H       -0.91040000       1.80340000      -0.26820000
H       -0.15560000       1.63750000       1.33090000
H       -1.14080000      -0.62450000       1.47940000
H        2.46710000      -1.79870000      -0.26680000
H        1.03550000      -2.85840000      -0.43370000
H        1.48480000      -0.14780000      -1.72470000
H       -0.91670000      -1.57820000      -1.68170000
H        2.30080000      -1.13760000       2.45170000
