18
Properties=species:S:1:pos:R:3 gdb_47157=T pbc="F F F"
N       -0.06910000       1.32550000      -0.17490000
C        0.03320000       0.08710000       0.06920000
O        1.23090000      -0.48840000       0.38200000
C        1.33380000      -1.88460000       0.74390000
C        0.13110000      -2.40480000       1.49260000
C       -1.03590000      -1.92670000       1.09420000
C       -2.47810000      -1.78070000       1.52620000
C       -2.49800000      -0.42300000       0.73780000
C       -1.15480000      -0.83610000       0.05770000
H        0.84450000       1.77720000      -0.09590000
H        1.51870000      -2.46160000      -0.17380000
H        2.23920000      -1.94470000       1.35360000
H        0.27510000      -3.08420000       2.32590000
H       -3.13610000      -2.53020000       1.07280000
H       -2.67920000      -1.75090000       2.60000000
H       -3.34740000      -0.25020000       0.07620000
H       -2.36320000       0.44490000       1.38410000
H       -1.30890000      -1.22140000      -0.95850000
