17
Properties=species:S:1:pos:R:3 gdb_72085=T pbc="F F F"
C        0.02660000       1.49050000      -0.02340000
C        0.00700000      -0.00360000       0.06190000
O        1.11460000      -0.63010000      -0.53160000
C        0.99720000      -2.00090000      -0.12510000
O        0.55070000      -1.92500000       1.24180000
C       -0.35940000      -0.86590000       1.21750000
C       -1.29870000      -0.84490000      -0.02030000
C       -1.25530000      -2.03890000      -0.87180000
C       -0.07190000      -2.66210000      -0.94340000
H        0.94470000       1.88800000       0.42070000
H       -0.02390000       1.82200000      -1.06530000
H       -0.82820000       1.91350000       0.51120000
H        1.98110000      -2.46680000      -0.15200000
H       -0.68900000      -0.54830000       2.19680000
H       -2.22680000      -0.29620000       0.08930000
H       -2.14460000      -2.37390000      -1.39490000
H        0.12750000      -3.55620000      -1.51950000
