18
Properties=species:S:1:pos:R:3 gdb_91252=T pbc="F F F"
C        0.07790000       1.52770000       0.19480000
C        0.02740000       0.02210000      -0.00390000
C        0.82350000      -0.64110000      -1.20410000
C        1.17100000      -1.83860000      -0.24650000
O        2.47230000      -2.35030000      -0.01720000
C        2.93430000      -1.82440000       1.18930000
N        4.04590000      -2.11880000       1.71520000
C        1.95640000      -0.82220000       1.66830000
C        0.90110000      -0.87090000       0.85240000
H        1.11270000       1.88320000       0.21440000
H       -0.44700000       2.04450000      -0.61510000
H       -0.39740000       1.81590000       1.13800000
H       -1.01030000      -0.32970000      -0.02740000
H        0.26040000      -0.87840000      -2.10930000
H        1.71510000      -0.05920000      -1.44620000
H        0.47240000      -2.67130000      -0.37560000
H        4.55440000      -2.78490000       1.13240000
H        2.20640000      -0.11560000       2.44580000
