21
Properties=species:S:1:pos:R:3 gdb_80863=T pbc="F F F"
C       -0.16720000       1.52800000       0.03000000
C       -0.00020000       0.01540000      -0.00780000
C        1.12580000      -0.58810000      -0.90390000
C        2.12530000      -0.27930000       0.25350000
C        0.89280000      -0.61880000       1.12290000
O        0.82570000      -0.22590000       2.45400000
C        0.72610000      -2.11990000       0.84470000
O       -0.55020000      -2.51330000       1.33600000
C        0.88900000      -2.10250000      -0.70990000
H        0.78200000       2.06730000       0.08750000
H       -0.69350000       1.88020000      -0.86380000
H       -0.75990000       1.82040000       0.90320000
H       -0.97990000      -0.45810000      -0.12500000
H        1.30200000      -0.23040000      -1.91790000
H        3.01080000      -0.91540000       0.35270000
H        2.41590000       0.76820000       0.31850000
H        0.11080000      -0.73830000       2.85280000
H        1.51400000      -2.69900000       1.34530000
H       -0.62110000      -3.47030000       1.27880000
H       -0.02350000      -2.45450000      -1.20080000
H        1.72950000      -2.71330000      -1.05280000
