10
Properties=species:S:1:pos:R:3 gdb_130789=T pbc="F F F"
O       -0.00220000      -0.07670000       0.00360000
C        0.01850000       1.12000000       0.00880000
O       -1.17350000       1.82530000       0.02890000
N       -1.23960000       3.25890000       0.03710000
N       -0.19660000       3.91400000       0.02610000
C        1.06790000       3.30020000       0.00570000
C        1.21010000       1.96080000      -0.00300000
C        2.17690000       4.20370000      -0.00480000
N        3.08670000       4.91690000      -0.01350000
H        2.17590000       1.47200000      -0.01860000
