18
Properties=species:S:1:pos:R:3 gdb_79765=T pbc="F F F"
O        0.09930000       1.39570000       0.30240000
C        0.03280000       0.00040000       0.01840000
C       -1.40910000      -0.44510000      -0.11030000
C       -2.14470000      -0.01550000      -1.36520000
C       -1.37050000       0.81190000      -2.37730000
C       -0.08330000       0.02350000      -2.54910000
C        0.63850000      -0.40100000      -1.32330000
N       -0.23220000      -1.36810000      -2.03640000
C       -1.50480000      -1.38110000      -1.28830000
H        1.02770000       1.63850000       0.37820000
H        0.52260000      -0.56810000       0.82410000
H       -1.98710000      -0.60690000       0.79200000
H       -3.22010000       0.10120000      -1.29520000
H       -1.91440000       0.85730000      -3.32730000
H       -1.18400000       1.83360000      -2.03600000
H        0.47120000       0.12420000      -3.47790000
H        1.70630000      -0.60310000      -1.36780000
H       -2.04630000      -2.31790000      -1.28630000
