21
Properties=species:S:1:pos:R:3 gdb_69324=T pbc="F F F"
C        0.16470000       1.54790000       0.25520000
C        0.18200000       0.06000000       0.05770000
C       -0.92110000      -0.84140000       0.54910000
C        0.48660000      -0.96830000       1.11220000
C        1.39300000      -1.99560000       0.45910000
C        2.84340000      -1.80070000       0.91020000
O        0.94130000      -3.31230000       0.76550000
C        1.20500000      -1.66860000      -1.05380000
O        0.82450000      -0.30400000      -1.15000000
H        1.18260000       1.95080000       0.25390000
H       -0.39420000       2.03560000      -0.55030000
H       -0.31180000       1.80460000       1.20500000
H       -1.66640000      -0.39860000       1.20110000
H       -1.30070000      -1.63320000      -0.08630000
H        0.67690000      -0.69910000       2.14510000
H        2.93450000      -1.94220000       1.99110000
H        3.50520000      -2.52080000       0.41280000
H        3.19660000      -0.79640000       0.65620000
H        1.60400000      -3.93520000       0.44830000
H        2.11600000      -1.80670000      -1.64490000
H        0.42700000      -2.33280000      -1.45450000
