13
Properties=species:S:1:pos:R:3 gdb_12584=T pbc="F F F"
C       -0.02310000       1.53510000       0.00610000
C       -0.00710000       0.04230000      -0.02780000
C       -0.04150000      -0.78420000      -1.09660000
N       -0.01150000      -2.14020000      -0.76050000
C        0.04680000      -2.29690000       0.61540000
O        0.08390000      -3.32690000       1.23220000
C        0.05170000      -0.81850000       1.16060000
O        0.09560000      -0.52790000       2.33100000
H        0.87700000       1.92780000       0.49150000
H       -0.08040000       1.95680000      -1.00130000
H       -0.87750000       1.90610000       0.58260000
H       -0.08810000      -0.50910000      -2.14280000
H       -0.02970000      -2.90450000      -1.41430000
