18
Properties=species:S:1:pos:R:3 gdb_82257=T pbc="F F F"
C       -0.10220000       1.54810000       0.01970000
C        0.01940000       0.01970000      -0.00230000
C        0.79990000      -0.52890000      -1.19720000
N        2.19720000      -0.05560000      -1.26890000
C        1.89290000      -1.40140000      -0.69050000
C        1.79720000      -1.36820000       0.79220000
C        0.79530000      -0.56270000       1.18900000
C        0.45260000      -0.24220000       2.52300000
C        0.11450000       0.05380000       3.64200000
H        0.88760000       2.00280000      -0.06740000
H       -0.71960000       1.89800000      -0.81400000
H       -0.56410000       1.88700000       0.95120000
H       -0.99060000      -0.41330000      -0.00330000
H        0.27500000      -0.74560000      -2.12160000
H        2.52730000      -0.18380000      -2.22450000
H        2.24260000      -2.28370000      -1.21490000
H        2.46920000      -1.89650000       1.45640000
H       -0.16660000       0.30650000       4.63400000
