20
Properties=species:S:1:pos:R:3 gdb_69966=T pbc="F F F"
C        0.13950000       1.53230000       0.06680000
C       -0.04100000       0.04690000      -0.04350000
C       -0.95290000      -0.73910000       0.80450000
N        0.50300000      -0.93180000       0.99900000
C        1.04600000      -1.78930000      -0.13260000
C        0.16430000      -2.90540000      -0.75510000
C       -0.33840000      -1.90420000      -1.84830000
C        0.54280000      -0.78920000      -1.20820000
O        1.35110000      -0.00020000      -2.02680000
H        1.13950000       1.83030000      -0.25720000
H       -0.58910000       2.06200000      -0.55780000
H       -0.00390000       1.84950000       1.10380000
H       -1.40640000      -0.22400000       1.64720000
H       -1.57100000      -1.53610000       0.40450000
H        2.10070000      -2.00450000       0.04090000
H        0.75910000      -3.72600000      -1.16320000
H       -0.59700000      -3.33780000      -0.10230000
H        0.00360000      -2.16340000      -2.85560000
H       -1.41370000      -1.71140000      -1.89510000
H        1.80950000      -0.57370000      -2.64950000
