17
Properties=species:S:1:pos:R:3 gdb_30511=T pbc="F F F"
C       -0.00380000       1.41260000      -0.15590000
N       -0.00940000      -0.03770000      -0.23600000
C       -1.06380000      -0.66230000       0.08280000
O       -2.20100000       0.01650000       0.50300000
C       -3.30930000      -0.68980000       0.83630000
C       -3.34000000      -2.02720000       0.77170000
N       -2.24160000      -2.77120000       0.36030000
C       -1.16670000      -2.13370000       0.03460000
C        0.04670000      -2.88720000      -0.41600000
H        0.97740000       1.78440000      -0.45850000
H       -0.76390000       1.86080000      -0.81030000
H       -0.21320000       1.76710000       0.86250000
H       -4.12610000      -0.05080000       1.14680000
H       -4.23290000      -2.57670000       1.04130000
H       -0.16560000      -3.95660000      -0.40490000
H        0.34240000      -2.57070000      -1.42140000
H        0.89900000      -2.66390000       0.23370000
