14
Properties=species:S:1:pos:R:3 gdb_2022=T pbc="F F F"
O        0.05370000      -0.01230000       0.00390000
C       -0.02180000       1.18590000       0.01110000
C       -1.16100000       2.24260000       0.03170000
C       -0.02560000       3.27970000       0.02140000
C        0.08840000       4.56270000      -0.73580000
C        0.11040000       4.55390000       0.78960000
N        0.92680000       2.18360000       0.00110000
H       -1.79810000       2.22810000      -0.85450000
H       -1.77360000       2.21920000       0.93480000
H        1.02080000       4.77300000      -1.24980000
H       -0.79360000       4.94710000      -1.23750000
H       -0.75660000       4.93240000       1.32090000
H        1.05730000       4.75850000       1.27890000
H        1.93530000       2.15360000      -0.01230000
