18
Properties=species:S:1:pos:R:3 gdb_36398=T pbc="F F F"
C       -0.02320000      -1.21980000      -0.04010000
C       -0.02750000      -0.01870000      -0.02410000
C       -0.03130000       1.44080000       0.02370000
N        1.31430000       1.98810000       0.04890000
C        2.15110000       1.73460000       1.24780000
C        2.56310000       3.20690000       1.20770000
C        3.20040000       4.07280000       2.19290000
O        3.89440000       3.63610000       1.01250000
C        1.44560000       3.45750000       0.19430000
H       -0.02010000      -2.28140000      -0.06530000
H       -0.54310000       1.83470000      -0.86390000
H       -0.63060000       1.76730000       0.89940000
H        1.57240000       1.47490000       2.14820000
H        2.94520000       0.99680000       1.10240000
H        2.95440000       5.13370000       2.22440000
H        3.56400000       3.65300000       3.13020000
H        1.72330000       3.98580000      -0.72350000
H        0.56290000       3.94260000       0.64260000
