18
Properties=species:S:1:pos:R:3 gdb_102784=T pbc="F F F"
C        0.33130000       1.74080000       0.23740000
C        0.55930000       0.24640000       0.00730000
C        0.90020000      -0.52020000       1.28680000
O       -0.22480000      -0.49520000       2.18560000
C       -0.06410000       0.03280000       3.41920000
O       -0.93530000       0.03220000       4.23380000
C        1.30670000      -1.96770000       0.96330000
N        0.52570000      -2.93150000       1.50830000
O        2.27450000      -2.17900000       0.25890000
H        1.22170000       2.21890000       0.66080000
H        0.10240000       2.24390000      -0.70610000
H       -0.50610000       1.91730000       0.91900000
H       -0.33150000      -0.20990000      -0.44030000
H        1.38840000       0.07750000      -0.68570000
H        1.76530000      -0.05460000       1.77720000
H        0.94620000       0.45610000       3.57470000
H       -0.30740000      -2.69590000       2.01930000
H        0.72400000      -3.89220000       1.28240000
