17
Properties=species:S:1:pos:R:3 gdb_92788=T pbc="F F F"
C        0.49090000       1.72480000      -0.25150000
C        0.26420000       0.29110000       0.19700000
C        0.33870000      -0.77160000      -0.93620000
N        1.53940000      -1.56950000      -0.64150000
C        1.98560000      -1.12750000       0.45950000
C        3.19360000      -1.66590000       1.17720000
C        4.21470000      -0.64430000       1.41280000
N        5.03000000       0.15220000       1.59740000
O        1.34960000      -0.11200000       1.08710000
H        1.42170000       1.80680000      -0.82130000
H       -0.33580000       2.04940000      -0.89180000
H        0.54870000       2.39930000       0.60680000
H       -0.65740000       0.21140000       0.78030000
H       -0.54010000      -1.42440000      -0.96160000
H        0.43140000      -0.30910000      -1.92480000
H        2.88570000      -2.07830000       2.14540000
H        3.61150000      -2.47800000       0.57860000
