19
Properties=species:S:1:pos:R:3 gdb_53145=T pbc="F F F"
C        0.01420000       1.51150000       0.04710000
C       -0.04220000       0.05560000       0.04230000
C       -0.07390000      -1.15120000       0.03590000
C       -0.08900000      -2.59220000       0.02780000
C       -0.44970000      -3.43590000       1.23500000
C       -1.51970000      -2.73100000       2.07160000
C       -2.47960000      -2.78860000       0.82410000
O       -3.10500000      -1.62860000       0.35180000
C       -1.35300000      -3.43440000       0.00380000
H        1.03210000       1.86660000       0.24260000
H       -0.30470000       1.92890000      -0.91440000
H       -0.63590000       1.93100000       0.82270000
H        0.70290000      -3.03430000      -0.57280000
H        0.21830000      -4.21510000       1.58040000
H       -1.88740000      -3.32130000       2.91340000
H       -1.25880000      -1.72850000       2.42210000
H       -3.28020000      -3.51120000       1.00320000
H       -2.40730000      -0.99560000       0.13860000
H       -1.48210000      -4.19120000      -0.76160000
