17
Properties=species:S:1:pos:R:3 gdb_64602=T pbc="F F F"
C        0.02050000       1.67550000       0.22930000
C       -0.00400000       0.13830000       0.05840000
C       -1.46050000      -0.31200000       0.19210000
O       -2.08350000      -0.87430000      -0.66790000
C        0.67050000      -0.38100000      -1.18360000
C        1.68480000      -1.20380000      -0.91600000
C        1.89370000      -1.41460000       0.55910000
C        0.81840000      -0.52620000       1.19400000
O        0.62470000      -0.35240000       2.36830000
H        1.04690000       2.04710000       0.16800000
H       -0.56880000       2.16260000      -0.55340000
H       -0.38720000       1.95300000       1.20540000
H       -1.91060000      -0.05730000       1.17650000
H        0.33270000      -0.10420000      -2.17450000
H        2.30160000      -1.68850000      -1.66360000
H        1.75510000      -2.45540000       0.88020000
H        2.88650000      -1.11600000       0.91910000
