17
Properties=species:S:1:pos:R:3 gdb_56303=T pbc="F F F"
N       -0.04310000       1.29720000      -0.06870000
C        0.06560000      -0.05130000       0.13000000
O        1.11200000      -0.60850000       0.36690000
C       -1.28480000      -0.77970000       0.08910000
O       -1.05170000      -2.15430000      -0.02610000
C       -2.22550000      -2.92630000       0.03040000
C       -1.78670000      -4.39210000      -0.07420000
C       -2.92350000      -5.30590000      -0.03380000
N       -3.83730000      -6.01210000      -0.00070000
H        0.80750000       1.83590000      -0.09130000
H       -0.88220000       1.72110000      -0.42500000
H       -1.83330000      -0.54140000       1.01700000
H       -1.89580000      -0.40400000      -0.75010000
H       -2.76790000      -2.75870000       0.97430000
H       -2.91170000      -2.67620000      -0.79430000
H       -1.23310000      -4.53790000      -1.00730000
H       -1.10020000      -4.62290000       0.74670000
