19
Properties=species:S:1:pos:R:3 gdb_72668=T pbc="F F F"
C       -0.27510000       1.52960000       0.08130000
C       -0.03420000       0.04250000       0.00410000
C       -1.26040000      -0.91780000      -0.02030000
C       -0.67720000      -1.72880000       1.17620000
C        0.58980000      -0.83570000       1.16080000
O        1.59160000      -1.35260000       0.24830000
C        1.15130000      -0.48410000      -0.82160000
C        1.12810000      -0.32820000       2.39690000
C        1.54810000       0.11920000       3.43180000
H        0.65040000       2.07200000       0.30030000
H       -0.67250000       1.90790000      -0.86850000
H       -1.00070000       1.77460000       0.86400000
H       -2.20260000      -0.41630000       0.21270000
H       -1.38960000      -1.47240000      -0.95340000
H       -1.25960000      -1.62990000       2.09480000
H       -0.45610000      -2.78290000       0.99920000
H        0.90950000      -1.04110000      -1.73530000
H        1.91100000       0.27450000      -1.05380000
H        1.92960000       0.50460000       4.34490000
