18
Properties=species:S:1:pos:R:3 gdb_124870=T pbc="F F F"
C       -0.22540000       1.44150000       0.30060000
C        0.01460000      -0.02660000       0.02100000
C        1.35380000      -0.51350000      -0.45990000
C        0.87740000      -0.85590000       0.93170000
N       -1.13410000      -0.70160000      -0.53880000
N       -2.08790000      -1.22790000       0.22660000
C       -3.00420000      -1.63970000      -0.65010000
C       -2.55900000      -1.32700000      -1.94170000
N       -1.37280000      -0.72540000      -1.84840000
H        0.67350000       1.89870000       0.72320000
H       -0.48110000       1.97340000      -0.62110000
H       -1.04480000       1.56950000       1.01480000
H        1.35870000      -1.29870000      -1.20540000
H        2.13510000       0.22880000      -0.57750000
H        1.32900000      -0.35110000       1.77820000
H        0.56020000      -1.87260000       1.12710000
H       -3.90660000      -2.13020000      -0.32150000
H       -3.01760000      -1.50550000      -2.90130000
