16
Properties=species:S:1:pos:R:3 gdb_50248=T pbc="F F F"
N       -0.08550000       1.21220000      -0.44470000
C       -0.03220000       0.03900000      -0.00860000
O        0.90060000      -0.58530000       0.80280000
C        0.17950000      -1.85500000       0.73280000
C       -0.81270000      -2.03390000       1.89910000
C       -1.92570000      -1.37160000       1.03920000
C       -2.57920000      -0.11760000       1.56640000
O       -2.43360000       0.29800000       2.68710000
C       -0.90860000      -1.18540000      -0.14960000
H        0.70400000       1.77210000      -0.11820000
H        0.83360000      -2.66890000       0.42400000
H       -1.01220000      -3.07620000       2.15470000
H       -0.54950000      -1.48010000       2.80120000
H       -2.71900000      -2.06730000       0.74490000
H       -3.22190000       0.41390000       0.83080000
H       -1.20640000      -1.49310000      -1.14880000
