17
Properties=species:S:1:pos:R:3 gdb_55843=T pbc="F F F"
N        0.42100000       0.05320000       0.77840000
C       -0.15570000       0.34800000      -0.41630000
O        0.14970000       1.29520000      -1.11230000
C       -1.27750000      -0.61770000      -0.82320000
N       -1.20930000      -1.90750000      -0.16130000
C       -0.25000000      -2.90990000      -0.69830000
C       -1.36890000      -3.95570000      -0.59250000
O       -1.43330000      -5.14300000      -0.67740000
C       -2.36920000      -2.82510000      -0.30540000
H        1.10220000       0.68710000       1.16110000
H        0.05660000      -0.70800000       1.32760000
H       -2.22220000      -0.13440000      -0.54680000
H       -1.26010000      -0.68550000      -1.92370000
H        0.04450000      -2.73340000      -1.74530000
H        0.65190000      -3.06950000      -0.09980000
H       -3.00240000      -2.92320000       0.58220000
H       -3.00520000      -2.61980000      -1.18060000
