22
Properties=species:S:1:pos:R:3 gdb_119636=T pbc="F F F"
C       -0.03010000       1.59120000       0.00580000
C       -0.01550000       0.06040000      -0.01320000
C       -1.42390000      -0.54940000       0.03490000
C       -1.41550000      -2.05290000       0.01650000
C       -1.01160000      -2.86280000      -1.24000000
C       -2.02260000      -3.86910000      -0.72940000
C       -1.96410000      -3.88700000       0.76380000
C       -0.91540000      -2.89230000       1.21780000
N       -2.78030000      -2.83810000       0.06050000
H        0.98450000       2.00010000      -0.02920000
H       -0.58160000       1.99180000      -0.85190000
H       -0.51210000       1.97060000       0.91350000
H        0.50190000      -0.28980000      -0.91570000
H        0.57090000      -0.31090000       0.83720000
H       -1.94620000      -0.20880000       0.93870000
H       -2.01530000      -0.18770000      -0.81680000
H       -1.36810000      -2.37660000      -2.15280000
H        0.03580000      -3.15960000      -1.36140000
H       -2.54670000      -4.63450000      -1.29090000
H       -2.44340000      -4.66620000       1.34610000
H        0.13810000      -3.19090000       1.24970000
H       -1.19890000      -2.42850000       2.16700000
