18
Properties=species:S:1:pos:R:3 gdb_77812=T pbc="F F F"
C       -0.05690000       1.49280000      -0.04530000
C        0.02200000      -0.00920000       0.01500000
N       -1.18040000      -0.70890000      -0.42090000
C       -1.24730000      -2.00070000       0.27770000
C       -0.21370000      -1.96110000       1.41740000
O       -0.16470000      -2.73150000       2.34560000
C        0.67980000      -0.79220000       1.17700000
C        1.30200000      -0.71740000      -0.23050000
O        1.33000000      -1.81590000      -1.08460000
H        0.89420000       1.95100000       0.23740000
H       -0.30420000       1.81740000      -1.06180000
H       -0.82830000       1.87430000       0.63390000
H       -1.97740000      -0.14350000      -0.14980000
H       -2.24530000      -2.20010000       0.67560000
H       -0.97900000      -2.82480000      -0.39290000
H        1.21230000      -0.36220000       2.01650000
H        2.18780000      -0.08270000      -0.27110000
H        2.01150000      -2.42250000      -0.77380000
