19
Properties=species:S:1:pos:R:3 gdb_109062=T pbc="F F F"
C        0.11080000       1.47250000       0.27590000
C       -0.07750000       0.00500000      -0.14670000
C       -1.50940000      -0.43970000      -0.14100000
C       -2.22660000      -0.92150000      -1.17260000
C       -3.51680000      -1.46910000      -0.63510000
O       -3.13230000      -2.67760000       0.16910000
C       -3.12290000      -1.86800000       1.31630000
C       -3.78780000      -0.69860000       0.69260000
C       -2.34240000      -0.51280000       1.09160000
H        1.16980000       1.74770000       0.25910000
H       -0.42710000       2.14510000      -0.39930000
H       -0.26280000       1.65000000       1.28950000
H        0.34270000      -0.14560000      -1.14700000
H        0.49980000      -0.63720000       0.53270000
H       -1.86280000      -1.10130000      -2.17620000
H       -4.32710000      -1.71480000      -1.31880000
H       -3.17920000      -2.35150000       2.28410000
H       -4.62910000      -0.07460000       0.96610000
H       -2.10080000       0.04360000       1.98970000
