17
Properties=species:S:1:pos:R:3 gdb_111969=T pbc="F F F"
O       -0.15410000       1.51010000       0.31680000
C        0.03800000       0.11070000       0.18080000
C       -1.33060000      -0.50480000      -0.10470000
C       -1.95030000      -0.14180000      -1.43640000
C       -2.42070000      -1.20000000      -2.10070000
C       -2.26700000      -2.47660000      -1.31480000
O       -1.76480000      -3.56860000      -2.04850000
C       -1.29050000      -2.03070000      -0.21300000
O       -0.54000000      -2.78650000       0.35150000
H        0.70490000       1.92040000       0.45360000
H        0.72570000      -0.12410000      -0.64590000
H        0.44880000      -0.34030000       1.09490000
H       -1.99280000      -0.22280000       0.72860000
H       -1.98810000       0.88620000      -1.77530000
H       -2.90280000      -1.17920000      -3.07050000
H       -3.22840000      -2.74690000      -0.83610000
H       -1.18270000      -4.04860000      -1.44260000
