14
Properties=species:S:1:pos:R:3 gdb_56452=T pbc="F F F"
O        0.30520000       1.52350000      -0.03890000
C       -0.05070000       0.18120000       0.00580000
C        0.06270000      -0.47360000      -1.31430000
N        0.15080000      -1.01470000      -2.33140000
C        0.83890000      -0.58050000       1.02440000
O        1.66820000       0.04710000       1.63580000
C        0.61460000      -2.04930000       1.18590000
C        1.79550000      -2.93000000       1.34420000
O        0.97850000      -2.59440000       2.44910000
H        1.07220000       1.60320000       0.55550000
H       -1.09630000       0.06520000       0.33740000
H       -0.28910000      -2.45720000       0.73680000
H        1.72410000      -3.95540000       0.98720000
H        2.78330000      -2.47470000       1.34010000
