18
Properties=species:S:1:pos:R:3 gdb_82634=T pbc="F F F"
C       -0.15170000       1.44600000       0.01080000
C       -0.01770000      -0.04510000       0.08280000
C       -0.04410000      -0.94530000      -1.17970000
N        0.73240000      -2.15760000      -0.82800000
C        0.01660000      -2.11890000       0.49310000
C        0.70950000      -0.88900000       1.13960000
O        2.10400000      -0.89800000       1.20260000
C       -1.07750000      -1.10810000      -0.09070000
O       -2.43430000      -0.96010000       0.02070000
H        0.81950000       1.91720000      -0.17380000
H       -0.83260000       1.74790000      -0.79200000
H       -0.54840000       1.84980000       0.94850000
H       -0.08670000      -0.52560000      -2.17680000
H        0.37610000      -2.94170000      -1.37120000
H       -0.11580000      -3.06100000       1.02130000
H        0.31860000      -0.67970000       2.13950000
H        2.38150000      -1.32170000       0.37580000
H       -2.86660000      -1.64290000      -0.50510000
