18
Properties=species:S:1:pos:R:3 gdb_109489=T pbc="F F F"
C        0.05390000       1.66860000      -0.24360000
N       -0.24110000       0.23810000      -0.17530000
C        0.64260000      -0.60750000      -0.92080000
C        2.10700000      -0.79030000      -0.47330000
O        2.69210000      -0.09490000       0.31560000
C        2.65220000      -2.06020000      -1.13500000
C        1.40600000      -2.90140000      -1.50310000
C        0.19070000      -2.07050000      -1.07180000
O       -0.90530000      -2.49740000      -0.83430000
H        1.05160000       1.94510000       0.12110000
H       -0.03830000       2.00220000      -1.28420000
H       -0.69650000       2.21000000       0.33940000
H       -0.29440000      -0.07320000       0.78730000
H        0.70960000      -0.23400000      -1.96000000
H        3.23330000      -1.77280000      -2.01830000
H        3.34060000      -2.56220000      -0.45160000
H        1.33520000      -3.09460000      -2.57890000
H        1.37040000      -3.87280000      -1.00460000
