15
Properties=species:S:1:pos:R:3 gdb_49720=T pbc="F F F"
N        0.02970000       1.29320000       0.07080000
C       -0.02260000       0.02760000       0.02180000
N       -1.21910000      -0.66870000      -0.06310000
C       -1.45270000      -2.11540000      -0.04520000
C       -1.65610000      -2.72050000       1.35960000
O       -3.05050000      -2.32890000       1.37020000
C       -2.97270000      -1.82240000       0.02170000
C       -2.59170000      -0.31760000      -0.01470000
O       -3.16130000       0.72800000       0.01720000
H        0.99900000       1.60260000       0.12000000
H        0.83610000      -0.65690000       0.02840000
H       -0.94900000      -2.68690000      -0.82310000
H       -1.55690000      -3.81170000       1.39150000
H       -1.08180000      -2.26740000       2.17420000
H       -3.74800000      -2.20100000      -0.64430000
