21
Properties=species:S:1:pos:R:3 gdb_103227=T pbc="F F F"
C       -0.21260000       1.66930000       0.04030000
C        0.01450000       0.15470000       0.05570000
C       -1.24530000      -0.59090000      -0.37110000
O       -1.56660000      -0.21240000      -1.70410000
C        1.24770000      -0.60190000      -0.38420000
C        2.63000000      -0.08340000       0.10380000
C        2.62230000       1.13070000       0.99870000
C        2.16450000      -0.18970000       1.54830000
C        0.77630000      -0.68840000       1.06300000
H        0.54000000       2.19470000      -0.55030000
H       -1.17550000       1.87890000      -0.43250000
H       -0.22660000       2.09690000       1.04720000
H       -1.08190000      -1.67710000      -0.30150000
H       -2.06480000      -0.33150000       0.31840000
H       -2.44100000      -0.55600000      -1.90900000
H        1.18230000      -1.36150000      -1.15420000
H        3.55060000      -0.45680000      -0.32610000
H        3.61880000       1.40690000       1.33480000
H        1.96910000       1.97870000       0.86530000
H        2.66920000      -0.67060000       2.37660000
H        0.29410000      -1.52690000       1.55340000
