19
Properties=species:S:1:pos:R:3 gdb_13375=T pbc="F F F"
C        0.07050000       1.60530000      -0.01610000
C        0.02580000       0.07650000       0.03470000
C        0.61830000      -0.56390000      -1.22260000
C        0.59410000      -2.05940000      -1.21350000
N        0.14480000      -2.81170000      -0.29410000
C        0.34230000      -4.19610000      -0.74570000
C        1.01020000      -4.06350000      -2.13970000
O        1.12140000      -2.63740000      -2.33290000
H        1.09920000       1.97230000      -0.10850000
H       -0.49510000       1.99360000      -0.87080000
H       -0.35730000       2.04250000       0.89100000
H        0.56910000      -0.29030000       0.91160000
H       -1.00560000      -0.26920000       0.15880000
H        0.08560000      -0.22460000      -2.12110000
H        1.65930000      -0.24550000      -1.36880000
H        0.96980000      -4.73790000      -0.02980000
H       -0.62030000      -4.71690000      -0.78960000
H        2.01320000      -4.49730000      -2.18830000
H        0.40870000      -4.47600000      -2.95500000
