14
Properties=species:S:1:pos:R:3 gdb_66403=T pbc="F F F"
N       -0.08820000       1.49790000       0.09260000
C       -0.02420000       0.09670000      -0.04880000
C       -1.10360000      -0.96620000      -0.11190000
O       -0.33980000      -1.75030000      -1.04840000
C        0.64460000      -0.75270000      -1.10090000
N        1.63720000      -0.61270000      -1.84400000
C       -0.33280000      -0.80810000       1.16630000
C        0.56770000      -1.81140000       1.66820000
N        1.28980000      -2.61180000       2.08550000
H        0.74960000       1.85720000       0.54010000
H       -0.16830000       1.94950000      -0.81320000
H       -2.17790000      -0.93190000      -0.22500000
H        1.74800000      -1.39460000      -2.49130000
H       -0.86350000      -0.24590000       1.93020000
