14
Properties=species:S:1:pos:R:3 gdb_52600=T pbc="F F F"
C       -0.03580000       1.48420000       0.01280000
C        0.00640000       0.03110000       0.00590000
C        0.05030000      -1.17110000       0.00910000
C        0.05730000      -2.64250000      -0.00440000
O       -1.25090000      -3.18200000       0.16810000
C        0.67740000      -3.13330000      -1.25090000
C        1.14100000      -3.53440000      -2.28250000
C        0.84440000      -3.14030000       1.15540000
N        1.47630000      -3.51000000       2.04720000
H        0.71800000       1.89030000       0.69530000
H        0.15830000       1.89020000      -0.98540000
H       -1.01530000       1.84660000       0.34170000
H       -1.79140000      -2.82980000      -0.54990000
H        1.56080000      -3.89240000      -3.19080000
