18
Properties=species:S:1:pos:R:3 gdb_73046=T pbc="F F F"
C       -0.35220000       1.48850000       0.17490000
C        0.02880000       0.04780000       0.07960000
O       -1.03520000      -0.90970000      -0.04930000
C       -0.34420000      -1.82450000       0.84800000
C        0.86730000      -0.90790000       0.91370000
C        1.29740000      -0.52210000      -0.49160000
C        1.29670000      -1.47510000      -1.67810000
C        2.30980000      -2.52410000      -1.56690000
N        3.11640000      -3.34510000      -1.46120000
H        0.53290000       2.10940000       0.33910000
H       -0.83170000       1.81960000      -0.75310000
H       -1.05510000       1.65340000       0.99700000
H       -0.88230000      -1.90170000       1.79840000
H       -0.21840000      -2.82340000       0.41510000
H        1.49130000      -0.73730000       1.78050000
H        2.12780000       0.17900000      -0.47880000
H        0.30810000      -1.93600000      -1.77330000
H        1.47190000      -0.91840000      -2.60560000
