17
Properties=species:S:1:pos:R:3 gdb_126313=T pbc="F F F"
C       -0.22840000       1.48110000       0.03250000
C        0.06670000      -0.03110000       0.02590000
C        0.77990000      -0.48280000      -1.21590000
C        2.08690000      -0.81070000      -1.26130000
C        2.67630000      -1.21230000      -2.51020000
N        2.05160000      -1.29790000      -3.63150000
O        0.69740000      -0.97490000      -3.60420000
C        0.01640000      -0.57630000      -2.46240000
N       -1.22580000      -0.31620000      -2.52940000
H        0.69660000       2.06310000      -0.03000000
H       -0.86820000       1.74740000      -0.81070000
H       -0.74180000       1.75760000       0.95790000
H        0.67560000      -0.29490000       0.89720000
H       -0.88050000      -0.57470000       0.09770000
H        2.70800000      -0.77620000      -0.37260000
H        3.72840000      -1.47380000      -2.57340000
H       -1.57260000      -0.44940000      -3.48040000
