18
Properties=species:S:1:pos:R:3 gdb_79482=T pbc="F F F"
C       -0.12160000       1.57040000      -0.02790000
C       -0.00030000       0.06330000       0.04750000
N        1.19460000      -0.56380000      -0.66980000
C        2.09620000      -0.29140000       0.56610000
C        2.57690000      -1.74310000       0.59310000
C        1.08610000      -1.79810000       0.26070000
C        0.70720000      -0.62020000       1.22920000
C        0.36360000      -0.67220000       2.62170000
C        0.06740000      -0.70830000       3.78800000
H        0.79830000       2.07380000       0.28380000
H       -0.34730000       1.88030000      -1.05330000
H       -0.93270000       1.92040000       0.61900000
H       -0.93680000      -0.41950000      -0.25950000
H        2.66870000       0.63150000       0.65770000
H        3.25690000      -2.03530000      -0.21060000
H        2.88400000      -2.14420000       1.56110000
H        0.44770000      -2.64080000      -0.01040000
H       -0.19310000      -0.74100000       4.81700000
