18
Properties=species:S:1:pos:R:3 gdb_19400=T pbc="F F F"
C       -0.05900000       1.56390000      -0.07190000
C        0.01950000       0.04730000       0.01610000
C        1.06430000      -0.65920000      -0.87840000
O        2.36230000      -0.21050000      -0.47390000
C        1.73420000      -1.25860000       0.28580000
C        0.75270000      -0.60050000       1.23210000
C        1.02280000      -0.03920000       2.59360000
C        0.11160000      -1.23650000       2.42860000
H        0.94230000       1.99760000      -0.00850000
H       -0.51480000       1.88080000      -1.01640000
H       -0.66460000       1.97790000       0.74170000
H       -0.96710000      -0.41130000      -0.11580000
H        0.95670000      -1.01840000      -1.89570000
H        2.27890000      -2.19010000       0.39390000
H        2.00500000      -0.19190000       3.02860000
H        0.56760000       0.91270000       2.84790000
H       -0.95490000      -1.09430000       2.57350000
H        0.47650000      -2.20660000       2.75220000
