20
Properties=species:S:1:pos:R:3 gdb_64243=T pbc="F F F"
C        0.31620000       1.47570000      -0.26830000
C        0.03880000       0.00470000       0.02780000
O       -1.30000000      -0.18950000       0.42940000
C        0.60920000      -0.96530000      -1.05680000
C        1.85440000      -1.19030000      -0.15820000
C        1.02950000      -0.64670000       1.03780000
N        1.67050000       0.15770000       2.04550000
C        1.63550000      -0.12770000       3.37890000
O        1.06410000      -1.06910000       3.88270000
H        1.35560000       1.64580000      -0.57000000
H       -0.31590000       1.82100000      -1.09550000
H        0.09950000       2.09080000       0.61020000
H       -1.87720000       0.27140000      -0.18910000
H       -0.01510000      -1.85890000      -1.12390000
H        0.77320000      -0.56050000      -2.05830000
H        2.24620000      -2.20450000      -0.06740000
H        2.67930000      -0.52100000      -0.42210000
H        0.51290000      -1.45140000       1.56250000
H        2.21300000       0.95630000       1.75560000
H        2.20650000       0.61830000       3.96800000
