20
Properties=species:S:1:pos:R:3 gdb_60292=T pbc="F F F"
C       -0.20940000       1.36390000      -0.34850000
C       -0.15230000      -0.14170000      -0.06390000
C        1.01170000      -0.49230000       0.87000000
C       -1.49970000      -0.62120000       0.50410000
N       -1.54720000      -2.06980000       0.62150000
C       -1.84990000      -2.56470000       1.73410000
O       -1.93420000      -3.91060000       1.97640000
C       -2.03960000      -4.77790000       0.91350000
O       -1.98910000      -5.95460000       1.08340000
H        0.72870000       1.71350000      -0.79050000
H       -1.01960000       1.61240000      -1.04230000
H       -0.37180000       1.93450000       0.57380000
H       -0.00250000      -0.67190000      -1.01330000
H        0.90100000       0.00860000       1.84010000
H        1.06740000      -1.56920000       1.05110000
H        1.96670000      -0.17320000       0.44080000
H       -1.69520000      -0.12110000       1.46920000
H       -2.29890000      -0.31940000      -0.18450000
H       -2.06800000      -2.01600000       2.65570000
H       -2.18390000      -4.25590000      -0.04070000
