20
Properties=species:S:1:pos:R:3 gdb_70674=T pbc="F F F"
C        0.23980000       1.56540000       0.19790000
C        0.08880000       0.06630000       0.10630000
C       -0.95550000      -0.66190000       0.90480000
C        0.51580000      -0.83810000       1.22630000
C        1.26280000      -2.10840000       0.88530000
C        2.58260000      -1.78650000       0.17120000
N        2.47680000      -1.30800000      -1.19730000
C        1.47190000      -0.75720000      -1.71680000
O        0.24240000      -0.39650000      -1.22840000
H        1.25380000       1.87290000      -0.08060000
H       -0.46570000       2.06410000      -0.47430000
H        0.04770000       1.91070000       1.21770000
H       -1.58080000      -0.08790000       1.58010000
H       -1.45470000      -1.48870000       0.41130000
H        0.88160000      -0.32410000       2.11230000
H        1.46560000      -2.68480000       1.79580000
H        0.65680000      -2.75160000       0.23770000
H        3.15240000      -1.04920000       0.75570000
H        3.21210000      -2.68420000       0.13740000
H        1.48850000      -0.53210000      -2.78420000
