19
Properties=species:S:1:pos:R:3 gdb_100590=T pbc="F F F"
C        0.09790000       1.45020000       0.10910000
C       -0.05030000      -0.06860000      -0.00410000
C       -1.53300000      -0.53740000       0.00130000
N       -2.36410000      -0.08320000      -1.10560000
C       -1.54100000      -2.05340000      -0.00480000
O       -1.72520000      -2.74670000      -0.96780000
O       -1.25030000      -2.53640000       1.24650000
C       -1.16610000      -3.89800000       1.41180000
N       -0.86700000      -4.33260000       2.55290000
H        1.15400000       1.73470000       0.12380000
H       -0.36450000       1.97090000      -0.73630000
H       -0.36270000       1.82600000       1.02920000
H        0.42360000      -0.42630000      -0.92710000
H        0.47030000      -0.54880000       0.83200000
H       -1.98350000      -0.20960000       0.94640000
H       -2.21260000       0.90340000      -1.28190000
H       -2.11190000      -0.59560000      -1.94560000
H       -1.38070000      -4.45020000       0.49690000
H       -0.84480000      -5.35140000       2.53810000
