20
Properties=species:S:1:pos:R:3 gdb_106393=T pbc="F F F"
O       -0.01250000       1.41880000      -0.07060000
C       -0.00790000      -0.00240000      -0.02940000
C       -1.43430000      -0.48590000      -0.03410000
C       -2.51530000       0.03680000       0.98390000
C       -3.49130000      -0.55540000      -0.09210000
C       -2.45100000      -0.07110000      -1.13740000
C       -3.15880000      -2.05480000       0.05880000
N       -2.36490000      -2.64550000      -1.04860000
C       -1.68110000      -2.00600000       0.10320000
H        0.89920000       1.72070000      -0.11390000
H        0.52260000      -0.42480000      -0.89850000
H        0.50510000      -0.36920000       0.87640000
H       -2.52760000      -0.41110000       1.98320000
H       -2.54130000       1.12620000       1.04830000
H       -4.54080000      -0.26720000      -0.14470000
H       -2.46930000       1.01230000      -1.25600000
H       -2.40500000      -0.57900000      -2.09870000
H       -3.75420000      -2.69750000       0.69730000
H       -2.33570000      -3.65480000      -0.91350000
H       -1.07810000      -2.60450000       0.77800000
