21
Properties=species:S:1:pos:R:3 gdb_104870=T pbc="F F F"
C       -0.08550000       1.55300000      -0.15910000
C        0.02010000       0.02830000      -0.09320000
C        0.83190000      -0.61070000      -1.23650000
C        0.76820000      -2.14970000      -1.12390000
O        1.31600000      -2.78830000      -2.25350000
O        0.24730000      -0.26500000      -2.51660000
C        1.16670000       0.49200000      -3.30580000
C        2.43370000       0.53010000      -2.50020000
C        2.24450000      -0.09030000      -1.34360000
H        0.89660000       2.03070000      -0.09570000
H       -0.55300000       1.86340000      -1.09780000
H       -0.69840000       1.93280000       0.66370000
H        0.47220000      -0.27940000       0.85910000
H       -0.98580000      -0.40760000      -0.11370000
H        1.34260000      -2.48250000      -0.25260000
H       -0.28160000      -2.44480000      -0.96440000
H        0.86920000      -2.38680000      -3.00880000
H        1.30050000       0.00610000      -4.28400000
H        0.76150000       1.49800000      -3.49690000
H        3.34250000       1.00440000      -2.84810000
H        2.97130000      -0.22670000      -0.55260000
