15
Properties=species:S:1:pos:R:3 gdb_44462=T pbc="F F F"
O        0.07300000       0.12660000       0.47590000
C       -0.01080000       1.25300000       0.10340000
C       -1.30840000       2.11940000       0.00240000
C       -0.67220000       3.46380000      -0.10020000
C       -0.62130000       4.95350000      -0.50680000
C        0.76450000       4.52720000       0.10920000
O        0.03630000       3.83020000       1.16800000
C        0.68990000       3.24470000      -0.76650000
O        1.09570000       1.96620000      -0.33000000
H       -1.86540000       1.82980000      -0.89410000
H       -1.92730000       1.95440000       0.88430000
H       -0.67930000       5.19760000      -1.57050000
H       -1.18720000       5.63610000       0.12530000
H        1.60760000       5.15620000       0.39300000
H        0.80650000       3.34760000      -1.84760000
