14
Properties=species:S:1:pos:R:3 gdb_7026=T pbc="F F F"
N       -0.10960000       1.43420000       0.32160000
C       -0.02460000       0.20070000       0.04580000
C       -1.26970000      -0.64730000      -0.09370000
C       -2.54740000       0.18020000      -0.05920000
O       -3.52250000      -0.14490000       0.56410000
N        1.16840000      -0.53400000      -0.14930000
C        2.45320000      -0.05030000      -0.06740000
O        2.76130000       1.09480000       0.16900000
H        0.81320000       1.86380000       0.38950000
H       -1.24630000      -1.18360000      -1.05530000
H       -1.32320000      -1.40590000       0.69510000
H       -2.52160000       1.09510000      -0.68120000
H        1.07470000      -1.51900000      -0.34890000
H        3.19790000      -0.84860000      -0.24890000
