19
Properties=species:S:1:pos:R:3 gdb_56319=T pbc="F F F"
C       -0.12190000       1.50280000       0.11200000
C        0.05880000      -0.00200000       0.04150000
O        1.15390000      -0.51770000       0.01840000
C       -1.21420000      -0.83430000       0.00110000
C       -0.94150000      -2.32850000      -0.06890000
O       -2.18910000      -2.99630000      -0.10150000
C       -2.07200000      -4.39310000      -0.16700000
C       -3.47000000      -4.98590000      -0.19630000
O       -3.69390000      -6.16540000      -0.25160000
H        0.85240000       1.99180000       0.13590000
H       -0.69320000       1.85940000      -0.75240000
H       -0.69500000       1.77690000       1.00480000
H       -1.82220000      -0.60230000       0.88520000
H       -1.82040000      -0.52030000      -0.85860000
H       -0.34800000      -2.56830000      -0.96360000
H       -0.34970000      -2.65120000       0.80060000
H       -1.52800000      -4.72280000      -1.06870000
H       -1.52980000      -4.80590000       0.70090000
H       -4.27710000      -4.22100000      -0.16150000
