17
Properties=species:S:1:pos:R:3 gdb_9009=T pbc="F F F"
C        0.03340000       1.49120000       0.02600000
C        0.03330000       0.03580000      -0.01930000
C        0.05080000      -1.16780000      -0.05620000
C        0.04940000      -2.62460000      -0.08960000
C       -1.38950000      -3.21840000      -0.04190000
C       -2.23550000      -2.81660000      -1.26290000
C       -1.31390000      -4.67750000       0.08250000
N       -1.24280000      -5.82760000       0.17280000
H        0.86840000       1.86810000       0.62650000
H        0.12460000       1.92160000      -0.97720000
H       -0.89200000       1.87490000       0.46910000
H        0.54800000      -2.98730000      -0.99710000
H        0.62350000      -3.02070000       0.75590000
H       -1.87530000      -2.84010000       0.86530000
H       -2.28080000      -1.72720000      -1.32780000
H       -1.79180000      -3.20320000      -2.18510000
H       -3.25120000      -3.21020000      -1.18080000
