19
Properties=species:S:1:pos:R:3 gdb_85833=T pbc="F F F"
C       -0.88720000       1.08390000      -0.06490000
C        0.06030000      -0.09740000       0.03350000
N        1.34270000       0.05970000      -0.69850000
C        2.13460000      -0.49550000       0.42420000
C        2.58030000      -1.95400000       0.27910000
C        3.27440000       0.36380000       0.77510000
N        4.14570000       1.06360000       1.07110000
C        0.87140000      -0.29840000       1.35480000
O        0.90480000       0.75250000       2.27090000
H       -0.39140000       2.01410000       0.22360000
H       -1.24530000       1.19940000      -1.09300000
H       -1.75560000       0.93810000       0.58530000
H       -0.47500000      -1.02270000      -0.22470000
H        1.43670000      -0.43640000      -1.57830000
H        3.29490000      -2.06130000      -0.54280000
H        3.06100000      -2.30960000       1.19530000
H        1.71340000      -2.58860000       0.07180000
H        0.61170000      -1.19100000       1.92690000
H        1.30640000       1.52690000       1.85950000
