18
Properties=species:S:1:pos:R:3 gdb_55405=T pbc="F F F"
C       -0.02270000       1.47340000       0.21710000
C        0.10550000      -0.00820000      -0.03980000
O        1.16330000      -0.55720000      -0.24280000
C       -1.20890000      -0.80330000      -0.00510000
C       -1.09180000      -2.24530000      -0.51510000
C       -1.97690000      -3.08610000       0.43220000
N       -2.05140000      -2.25670000       1.62230000
C       -1.72500000      -0.94650000       1.44990000
O       -1.82790000      -0.06640000       2.27870000
H        0.96450000       1.93330000       0.27210000
H       -0.60230000       1.94110000      -0.58790000
H       -0.58250000       1.62320000       1.14650000
H       -1.97360000      -0.22280000      -0.53580000
H       -1.39510000      -2.35450000      -1.55760000
H       -0.04500000      -2.54730000      -0.43590000
H       -2.97510000      -3.26330000       0.00870000
H       -1.53300000      -4.06070000       0.65700000
H       -2.50010000      -2.54850000       2.47650000
