14
Properties=species:S:1:pos:R:3 gdb_131388=T pbc="F F F"
O        0.99510000       1.18660000      -0.08580000
C        0.44930000      -0.04620000      -0.03480000
N        0.46120000      -0.87520000      -1.06510000
N       -0.17760000      -1.97690000      -0.59510000
C       -0.57900000      -1.84780000       0.68780000
C       -0.18910000      -0.59070000       1.10410000
C       -0.37410000       0.08390000       2.43440000
C       -1.07850000      -0.76000000       3.39890000
N       -1.63670000      -1.44240000       4.14550000
H        1.36160000       1.30460000      -0.97120000
H       -0.29840000      -2.76590000      -1.20490000
H       -1.10140000      -2.63190000       1.21280000
H        0.59420000       0.36700000       2.86660000
H       -0.93440000       1.02100000       2.32220000
