14
Properties=species:S:1:pos:R:3 gdb_20403=T pbc="F F F"
C        0.00370000       1.44030000       0.11360000
C        1.46840000       1.94510000      -0.11250000
C        2.23570000       0.65960000      -0.01900000
C        3.42900000       0.04120000       0.09830000
O        3.26230000      -1.30050000       0.08860000
N        1.88010000      -1.60770000      -0.04420000
C        1.32430000      -0.42750000      -0.10830000
N        0.02500000       0.01040000      -0.27650000
H       -0.26990000       1.55810000       1.17160000
H       -0.72320000       1.99100000      -0.48860000
H        1.56890000       2.39940000      -1.10500000
H        1.74660000       2.70210000       0.62440000
H        4.45010000       0.37500000       0.20250000
H       -0.72040000      -0.57290000       0.07480000
