23
Properties=species:S:1:pos:R:3 gdb_59371=T pbc="F F F"
C        0.12970000       1.49960000      -0.13600000
C        0.09350000      -0.02470000       0.04110000
C        0.84930000      -0.45210000       1.30680000
C       -1.34260000      -0.54430000       0.05450000
C       -2.20860000      -0.40250000      -1.22810000
C       -2.78920000      -1.83510000      -0.96980000
C       -1.59090000      -2.07780000       0.01060000
C       -4.09240000      -1.84410000      -0.33200000
C       -5.16820000      -1.84230000       0.20690000
H        1.15980000       1.86710000      -0.18950000
H       -0.38440000       1.81140000      -1.05100000
H       -0.35830000       2.00200000       0.70780000
H        0.59900000      -0.47870000      -0.82520000
H        1.89130000      -0.11700000       1.27730000
H        0.38700000      -0.01910000       2.20210000
H        0.85140000      -1.54030000       1.42690000
H       -1.87750000      -0.11030000       0.90830000
H       -2.92870000       0.41570000      -1.27720000
H       -1.59330000      -0.39260000      -2.13350000
H       -2.80680000      -2.48960000      -1.84620000
H       -0.77720000      -2.60570000      -0.49720000
H       -1.82000000      -2.59080000       0.94580000
H       -6.12080000      -1.84710000       0.67540000
