23
Properties=species:S:1:pos:R:3 gdb_114536=T pbc="F F F"
C        0.16330000       1.28410000      -0.19670000
O        0.01840000      -0.07730000       0.13110000
C       -1.32170000      -0.54290000       0.11770000
C       -1.91770000      -0.64340000      -1.31140000
C       -2.99420000      -1.73890000      -1.39000000
C       -3.73300000      -1.89530000      -0.02540000
C       -2.51730000      -2.77010000       0.40920000
C       -2.34650000      -3.11870000      -1.09430000
C       -1.34230000      -1.89160000       0.86440000
H        1.21800000       1.53860000      -0.06330000
H       -0.11770000       1.50120000      -1.23780000
H       -0.44140000       1.92800000       0.46260000
H       -1.93950000       0.17180000       0.68540000
H       -2.33590000       0.32550000      -1.60720000
H       -1.10820000      -0.87230000      -2.01570000
H       -3.60030000      -1.64020000      -2.29400000
H       -3.97600000      -0.99940000       0.55320000
H       -4.63630000      -2.50130000      -0.13440000
H       -2.69790000      -3.59020000       1.10830000
H       -2.99670000      -3.94480000      -1.39630000
H       -1.33300000      -3.29920000      -1.46650000
H       -0.39460000      -2.40800000       0.67320000
H       -1.38570000      -1.70090000       1.94230000
