18
Properties=species:S:1:pos:R:3 gdb_124838=T pbc="F F F"
C       -0.03820000       1.59080000       0.10260000
C       -0.02080000       0.07120000       0.21870000
O        0.37480000      -0.24890000       1.53650000
C       -1.40580000      -0.51220000      -0.10750000
N       -1.38530000      -1.96940000      -0.17810000
N       -1.89000000      -2.64140000      -1.20320000
C       -1.67550000      -3.92110000      -0.88290000
C       -1.02960000      -3.96890000       0.35670000
N       -0.85810000      -2.71700000       0.78860000
H        0.93720000       1.98750000       0.39410000
H       -0.25390000       1.90870000      -0.92180000
H       -0.79060000       2.01850000       0.77300000
H        0.69360000      -0.33990000      -0.51530000
H        0.24880000      -1.20330000       1.64880000
H       -2.11760000      -0.20330000       0.66580000
H       -1.76340000      -0.17680000      -1.08170000
H       -1.98510000      -4.71750000      -1.53980000
H       -0.69230000      -4.80970000       0.94100000
