17
Properties=species:S:1:pos:R:3 gdb_72507=T pbc="F F F"
O        0.02960000       1.40120000      -0.09410000
C        0.01710000       0.00940000      -0.10380000
C       -1.38380000      -0.66510000       0.04120000
C       -1.04760000      -2.11830000       0.51070000
C        0.51790000      -2.13330000       0.60050000
C        1.07130000      -1.93910000      -0.79930000
C        0.77670000      -0.69480000      -1.21090000
C        0.73870000      -0.68460000       1.07330000
O        1.28810000      -0.17190000       2.00450000
H        0.54660000       1.66570000       0.68040000
H       -1.96110000      -0.11870000       0.79260000
H       -1.93780000      -0.63910000      -0.89890000
H       -1.48720000      -2.33210000       1.48930000
H       -1.40140000      -2.87690000      -0.19020000
H        0.94860000      -2.93230000       1.20030000
H        1.59320000      -2.70800000      -1.35460000
H        1.01210000      -0.22650000      -2.15790000
