20
Properties=species:S:1:pos:R:3 gdb_82768=T pbc="F F F"
C       -0.09370000       1.46780000       0.02380000
N        0.08390000       0.02710000      -0.01470000
C        0.92950000      -0.49400000      -1.10170000
C        2.38370000      -0.10450000      -0.69970000
C        2.10770000      -1.07610000       0.46730000
C        1.26800000      -1.92430000      -0.52300000
O        0.25300000      -2.61620000       0.16050000
C        0.04800000      -1.90260000       1.39490000
C        0.78970000      -0.58660000       1.15110000
H        0.83190000       2.05660000       0.14770000
H       -0.57350000       1.79280000      -0.90570000
H       -0.76430000       1.72690000       0.84980000
H        0.51930000      -0.32600000      -2.09790000
H        3.13580000      -0.50010000      -1.38720000
H        2.59880000       0.94220000      -0.48130000
H        2.88470000      -1.49760000       1.10430000
H        1.79180000      -2.58920000      -1.20870000
H       -1.02310000      -1.74620000       1.54630000
H        0.45960000      -2.48160000       2.23550000
H        0.87640000       0.07750000       2.01200000
