20
Properties=species:S:1:pos:R:3 gdb_96019=T pbc="F F F"
O       -0.11830000       1.48780000       0.34330000
C       -0.07140000       0.10410000       0.01850000
C        0.66580000      -0.72260000       1.08230000
O       -0.29500000      -1.11240000       2.05900000
C       -1.58770000      -0.66120000       1.66300000
C       -1.50510000      -0.44410000       0.14340000
C       -2.58560000       0.42960000      -0.44290000
C       -3.04170000       0.22990000      -1.84010000
N       -3.92340000      -0.13000000      -0.71400000
H        0.78400000       1.81370000       0.41270000
H        0.34960000      -0.04760000      -0.98480000
H        1.12320000      -1.61990000       0.64070000
H        1.46460000      -0.13500000       1.55640000
H       -2.32010000      -1.42060000       1.95300000
H       -1.84260000       0.28070000       2.16960000
H       -1.52680000      -1.42470000      -0.35130000
H       -2.61580000       1.43600000      -0.03740000
H       -3.37630000       1.07740000      -2.43140000
H       -2.58230000      -0.56890000      -2.41780000
H       -3.90680000      -1.13940000      -0.58230000
