18
Properties=species:S:1:pos:R:3 gdb_24593=T pbc="F F F"
C       -0.12850000       1.55460000       0.03120000
C        1.36930000       1.49300000      -0.36920000
N        1.45660000       0.18580000       0.31490000
C       -0.00540000       0.05570000       0.41080000
C        2.25970000      -0.84480000      -0.10680000
C        2.10240000      -2.20220000      -0.14030000
C        3.34810000      -2.72010000      -0.63640000
C        4.15020000      -1.65560000      -0.87200000
O        3.49270000      -0.49060000      -0.54780000
H       -0.32040000       2.20190000       0.88820000
H       -0.83190000       1.79440000      -0.76580000
H        1.53240000       1.42330000      -1.45270000
H        2.03330000       2.25920000       0.04000000
H       -0.36920000      -0.24850000       1.39730000
H       -0.42340000      -0.62290000      -0.34720000
H        1.22810000      -2.75780000       0.15600000
H        3.60020000      -3.75680000      -0.79830000
H        5.14980000      -1.53090000      -1.25040000
