21
Properties=species:S:1:pos:R:3 gdb_68879=T pbc="F F F"
C        0.06790000       1.54980000       0.06090000
C       -0.02380000       0.05060000       0.08270000
C        1.14040000      -0.83330000      -0.32870000
C        0.57170000      -0.96640000       1.05810000
O        1.30770000      -0.68010000       2.19820000
C       -0.68930000      -1.81530000       1.03200000
C       -1.74880000      -1.37910000       2.07730000
C       -2.38720000      -0.40640000       1.04410000
C       -1.30550000      -0.77990000      -0.00360000
H        1.04770000       1.88300000       0.41740000
H       -0.07070000       1.94380000      -0.95310000
H       -0.68970000       2.01190000       0.70270000
H        1.01750000      -1.62030000      -1.07080000
H        2.09550000      -0.31820000      -0.36890000
H        1.98880000      -1.35430000       2.29870000
H       -0.58400000      -2.88600000       0.83640000
H       -2.41720000      -2.18550000       2.38710000
H       -1.32470000      -0.92190000       2.97440000
H       -3.38990000      -0.71410000       0.73710000
H       -2.43400000       0.64840000       1.32770000
H       -1.64960000      -1.06340000      -1.00180000
