21
Properties=species:S:1:pos:R:3 gdb_64423=T pbc="F F F"
C       -0.01960000       1.55860000      -0.02350000
C        0.02610000       0.02810000      -0.02180000
O       -1.30700000      -0.49510000       0.11190000
C        0.65620000      -0.53110000      -1.31400000
C        0.93110000      -2.02420000      -1.15960000
O        1.93830000      -2.24990000      -0.18080000
C        1.64780000      -1.71840000       1.08100000
C        2.23830000      -0.37320000       1.41930000
C        0.74750000      -0.51580000       1.20350000
H        0.98650000       1.98620000      -0.05510000
H       -0.56890000       1.92840000      -0.89860000
H       -0.52430000       1.92190000       0.87650000
H       -1.83550000      -0.12890000      -0.60550000
H       -0.02950000      -0.34860000      -2.15140000
H        1.59460000      -0.01470000      -1.54670000
H       -0.00020000      -2.54230000      -0.89070000
H        1.31870000      -2.45830000      -2.08530000
H        1.60210000      -2.48060000       1.85560000
H        2.59200000      -0.18350000       2.42680000
H        2.83200000       0.08770000       0.63700000
H        0.12660000      -0.46920000       2.09260000
