17
Properties=species:S:1:pos:R:3 gdb_90308=T pbc="F F F"
O        0.06820000       1.42740000       0.05820000
C        0.05290000       0.03210000       0.05070000
C        0.13080000      -0.65470000       1.48220000
C       -1.37060000      -0.74020000       1.36790000
C       -2.46510000      -0.22810000       1.94270000
C       -3.37470000       0.26640000       0.86330000
O       -2.78470000       1.40770000       0.16540000
C       -2.66790000       0.11060000      -0.43580000
C       -1.37890000      -0.63000000      -0.14060000
H       -0.80960000       1.73410000       0.33290000
H        0.81870000      -0.30660000      -0.65230000
H        0.64140000      -1.62140000       1.42520000
H        0.55290000      -0.05400000       2.28960000
H       -2.60190000       0.01520000       2.98900000
H       -4.45440000       0.32720000       0.95260000
H       -3.19330000      -0.00090000      -1.37930000
H       -1.30830000      -1.57350000      -0.68930000
