21
Properties=species:S:1:pos:R:3 gdb_40824=T pbc="F F F"
C       -0.16920000       1.40870000      -0.13910000
C        1.25320000       0.98730000       0.12410000
C        0.16560000      -0.05130000       0.05170000
C       -0.27720000      -0.76460000       1.29960000
C       -1.67870000      -1.36760000       1.16550000
O       -2.03480000      -2.10980000       2.32080000
C       -1.09000000      -3.13620000       2.57710000
C        0.30630000      -2.54470000       2.72990000
O        0.66390000      -1.80210000       1.57570000
H       -0.70260000       1.91700000       0.65770000
H       -0.43660000       1.74590000      -1.13420000
H        1.96670000       1.03630000      -0.69050000
H        1.67640000       1.20300000       1.09920000
H        0.15240000      -0.67470000      -0.83820000
H       -0.28900000      -0.05630000       2.14730000
H       -2.42900000      -0.58010000       1.05260000
H       -1.70780000      -2.01370000       0.27160000
H       -1.40810000      -3.63910000       3.49560000
H       -1.09040000      -3.86980000       1.75380000
H        0.33290000      -1.89860000       3.62320000
H        1.05730000      -3.33260000       2.84600000
