21
Properties=species:S:1:pos:R:3 gdb_103236=T pbc="F F F"
C        0.22630000       1.22010000      -0.54830000
C       -0.04460000       0.04250000       0.39460000
C       -1.41070000      -0.61520000       0.16050000
C       -2.50010000       0.04280000       1.00800000
C       -1.98330000      -1.09470000      -1.16480000
C       -1.01590000      -1.89610000      -2.08480000
O        0.29510000      -1.94130000      -1.50970000
C       -0.71430000      -2.83440000      -1.01060000
C       -1.68150000      -2.09000000      -0.03570000
H        1.16370000       1.72140000      -0.28690000
H        0.30710000       0.87470000      -1.58270000
H       -0.57240000       1.96890000      -0.50440000
H        0.75840000      -0.68470000       0.30330000
H       -0.03160000       0.40340000       1.43170000
H       -2.54510000       1.11900000       0.80890000
H       -3.49030000      -0.37730000       0.80680000
H       -2.28650000      -0.09030000       2.07400000
H       -2.95770000      -0.76990000      -1.50960000
H       -1.09840000      -2.02430000      -3.15760000
H       -0.48920000      -3.89410000      -1.01620000
H       -2.39680000      -2.63140000       0.57240000
