22
Properties=species:S:1:pos:R:3 gdb_36788=T pbc="F F F"
C       -0.11470000      -1.19670000       0.00830000
C       -0.06530000       0.00140000       0.09420000
C        0.02940000       1.45300000       0.19080000
C        1.44860000       1.98660000      -0.09170000
C        1.53050000       3.51150000       0.01450000
C        2.93380000       4.04990000      -0.26460000
N        2.95440000       5.50760000      -0.20690000
C        3.22240000       6.09800000       1.10090000
C        4.25260000       6.12810000       0.02630000
H       -0.17120000      -2.25420000      -0.06530000
H       -0.67880000       1.91280000      -0.51110000
H       -0.28770000       1.77370000       1.19200000
H        2.14840000       1.51970000       0.61160000
H        1.75590000       1.66210000      -1.09290000
H        0.83170000       3.97820000      -0.69030000
H        1.21690000       3.83040000       1.01750000
H        3.65450000       3.59950000       0.44470000
H        3.25190000       3.75200000      -1.27170000
H        2.65190000       6.98890000       1.34740000
H        3.40090000       5.42450000       1.93850000
H        5.11620000       5.47600000       0.14970000
H        4.44810000       7.04130000      -0.52870000
