13
Properties=species:S:1:pos:R:3 gdb_129526=T pbc="F F F"
N       -0.16080000       1.39800000       0.12900000
C        0.10220000       0.04690000       0.07220000
O        1.22120000      -0.42170000       0.09260000
N       -1.04820000      -0.73490000       0.03160000
C       -1.04380000      -2.11440000       0.00600000
N       -2.16750000      -2.78510000       0.03260000
O       -1.79750000      -4.10670000      -0.01460000
N       -0.44420000      -4.24190000      -0.07050000
C        0.04630000      -3.03500000      -0.05880000
H        0.65480000       1.97300000      -0.01250000
H       -1.01520000       1.76050000      -0.26370000
H       -1.95520000      -0.30770000       0.14130000
H        1.10150000      -2.83150000      -0.08940000
