18
Properties=species:S:1:pos:R:3 gdb_128207=T pbc="F F F"
C        0.06020000       1.49060000       0.09850000
N       -0.08430000       0.04180000       0.06010000
C        0.56150000      -0.74410000       0.97380000
C        0.82510000      -2.08780000       1.01180000
C        1.47240000      -2.24930000       2.26990000
N        2.00800000      -3.40800000       2.79210000
C        1.40810000      -4.68920000       2.46040000
N        1.58040000      -1.11740000       2.94130000
O        1.00070000      -0.14050000       2.08170000
H        1.08450000       1.83000000      -0.10860000
H       -0.61420000       1.92580000      -0.64190000
H       -0.22590000       1.85910000       1.08540000
H       -0.14170000      -0.36620000      -0.85940000
H        0.59890000      -2.82870000       0.26530000
H        2.25530000      -3.29990000       3.76600000
H        0.35100000      -4.77570000       2.75440000
H        1.47740000      -4.86740000       1.38300000
H        1.97270000      -5.48080000       2.95890000
