16
Properties=species:S:1:pos:R:3 gdb_15065=T pbc="F F F"
O        0.19840000       1.32780000      -0.09410000
C        0.04840000      -0.07000000      -0.03960000
C       -1.43580000      -0.50810000       0.09510000
C       -2.18330000      -0.01360000      -1.06310000
N       -2.72660000       0.37650000      -2.00670000
C       -1.55990000      -2.02060000       0.25780000
C       -2.78370000      -2.76510000      -0.12100000
N       -1.53800000      -2.93040000      -0.89350000
H       -0.14780000       1.63880000      -0.93820000
H        0.49640000      -0.57510000      -0.90700000
H        0.58070000      -0.40670000       0.85490000
H       -1.84040000      -0.01420000       0.98780000
H       -0.98070000      -2.38330000       1.10500000
H       -3.08510000      -3.63360000       0.45690000
H       -3.60030000      -2.20880000      -0.57290000
H       -1.60960000      -2.40240000      -1.76180000
