17
Properties=species:S:1:pos:R:3 gdb_7075=T pbc="F F F"
C       -0.11720000       1.57660000      -0.01070000
N       -0.02370000       0.12150000       0.04340000
C        0.66700000      -0.32820000       1.23860000
C        2.15680000      -0.02640000       1.15970000
O        2.85890000       0.18270000       2.11300000
C       -1.32730000      -0.52740000      -0.11530000
C       -1.93410000      -0.27040000      -1.41920000
C       -2.45320000      -0.06540000      -2.48300000
H        0.88480000       2.01410000       0.03520000
H       -0.57950000       1.87960000      -0.95240000
H       -0.71010000       1.99710000       0.82310000
H        0.26910000       0.08280000       2.18390000
H        0.58540000      -1.42290000       1.30350000
H        2.55500000      -0.04590000       0.12000000
H       -1.18170000      -1.60830000       0.00070000
H       -2.04150000      -0.22320000       0.67550000
H       -2.90730000       0.11060000      -3.42680000
