16
Properties=species:S:1:pos:R:3 gdb_24717=T pbc="F F F"
C        0.14140000       1.53230000      -0.10650000
N        1.54310000       1.46290000       0.37720000
C        1.51100000      -0.02270000       0.46330000
C       -0.02270000       0.00070000       0.07940000
N        0.33530000      -0.79170000      -1.11470000
C        0.18410000      -1.04810000      -2.46010000
C        1.48090000      -1.23660000      -2.90070000
N        2.42200000      -1.01280000      -1.90560000
C        1.67210000      -0.75600000      -0.86040000
H       -0.49070000       2.12850000       0.55960000
H       -0.00560000       1.87090000      -1.13720000
H        2.24150000       1.81930000      -0.26620000
H        1.93410000      -0.44280000       1.37560000
H       -0.84010000      -0.39000000       0.68240000
H       -0.76630000      -1.16340000      -2.95340000
H        1.78910000      -1.54990000      -3.88790000
