19
Properties=species:S:1:pos:R:3 gdb_11749=T pbc="F F F"
C       -0.30640000       1.49170000       0.08360000
C        0.12130000       0.02650000      -0.07430000
C        0.90040000      -0.47530000       1.10740000
C        2.34770000      -0.09750000       1.47420000
C        2.53840000      -1.55680000       2.02360000
O        2.79110000      -1.72150000       3.40380000
C        1.08940000      -1.86720000       1.65320000
N        0.18290000      -0.92110000       2.29770000
H        0.56180000       2.15140000       0.18970000
H       -0.87780000       1.83120000      -0.78550000
H       -0.93310000       1.61530000       0.97220000
H       -0.76440000      -0.60610000      -0.19740000
H        0.72810000      -0.08860000      -0.98170000
H        2.98730000       0.11110000       0.61200000
H        2.45720000       0.70880000       2.20760000
H        3.25410000      -2.12460000       1.41430000
H        3.67780000      -1.39650000       3.59010000
H        0.69560000      -2.82240000       1.32420000
H        0.57750000      -0.56760000       3.16790000
