18
Properties=species:S:1:pos:R:3 gdb_70650=T pbc="F F F"
N        0.12020000       1.40060000       0.01600000
C       -0.00580000      -0.03510000      -0.01870000
C       -0.47900000      -0.81800000      -1.22360000
C       -1.33070000      -0.74460000       0.02630000
C       -1.20180000      -1.90000000       1.02570000
N        0.03680000      -1.67050000       1.80380000
C        0.90260000      -0.79720000       0.98490000
C        1.95170000      -1.58740000       0.31510000
N        2.77580000      -2.18850000      -0.22830000
H        0.82660000       1.71430000      -0.64450000
H       -0.75010000       1.84130000      -0.26260000
H       -0.80080000      -0.24070000      -2.08480000
H        0.00440000      -1.75950000      -1.46920000
H       -2.25650000      -0.17910000      -0.00760000
H       -2.05640000      -1.95890000       1.70440000
H       -1.13280000      -2.86270000       0.50570000
H       -0.20140000      -1.15070000       2.64070000
H        1.40000000      -0.06020000       1.62040000
