20
Properties=species:S:1:pos:R:3 gdb_110566=T pbc="F F F"
C        0.45020000       1.09820000       0.69290000
C       -0.45410000       0.71680000      -0.47750000
N        0.27880000      -0.08500000      -1.45710000
C       -0.50980000      -0.69720000      -2.56280000
C        0.51980000      -1.84950000      -2.71000000
O       -0.46040000      -2.91570000      -2.70610000
C       -1.01190000      -1.96100000      -1.74290000
C       -2.30970000      -2.33910000      -1.09970000
C        0.41940000      -1.54800000      -1.19080000
H        0.77870000       0.21110000       1.24510000
H        1.34170000       1.61840000       0.33170000
H       -0.07730000       1.75080000       1.39540000
H       -1.36070000       0.21680000      -0.09600000
H       -0.79090000       1.62490000      -0.99300000
H       -1.02110000      -0.12200000      -3.33680000
H        1.39680000      -1.92410000      -3.34950000
H       -2.19470000      -3.27930000      -0.55070000
H       -2.65290000      -1.56950000      -0.40520000
H       -3.07720000      -2.48420000      -1.86690000
H        0.99470000      -1.97170000      -0.36640000
