25
Properties=species:S:1:pos:R:3 gdb_103748=T pbc="F F F"
C       -0.35860000       1.52670000       0.30180000
C        0.14490000       0.11660000      -0.03710000
C        0.88430000      -0.56440000       1.11050000
C        2.13340000       0.17300000       1.56630000
C        0.05670000      -1.26320000       2.18140000
C        0.88730000      -2.07950000       1.21260000
C        0.23210000      -2.97010000       0.17650000
O        2.08950000      -2.61650000       1.70990000
C        1.94150000      -3.71110000       2.59060000
H        0.46480000       2.21700000       0.50620000
H       -0.93620000       1.94080000      -0.53060000
H       -1.00690000       1.51050000       1.18480000
H       -0.71380000      -0.48780000      -0.34350000
H        0.80900000       0.16910000      -0.91080000
H        1.87730000       1.13580000       2.02020000
H        2.69400000      -0.41330000       2.29390000
H        2.79820000       0.37140000       0.71700000
H        0.40530000      -1.19760000       3.20710000
H       -1.02420000      -1.27740000       2.07590000
H       -0.69860000      -2.54650000      -0.20390000
H        0.90840000      -3.13540000      -0.66880000
H       -0.01460000      -3.94720000       0.60550000
H        1.56560000      -4.61140000       2.08450000
H        2.93480000      -3.93050000       2.99040000
H        1.26470000      -3.47570000       3.42420000
