15
Properties=species:S:1:pos:R:3 gdb_27640=T pbc="F F F"
C        0.11080000       1.46100000       0.00310000
C       -0.07440000      -0.01030000      -0.00100000
C       -1.13500000      -0.83360000      -0.13780000
C       -0.63540000      -2.19050000      -0.05920000
C       -1.33100000      -3.41030000      -0.16320000
N       -1.87400000      -4.43260000      -0.25070000
C        0.72310000      -2.06780000       0.13270000
N        1.70980000      -2.98830000       0.35200000
O        1.07880000      -0.77360000       0.16880000
H        0.77780000       1.78820000      -0.80310000
H       -0.85570000       1.95030000      -0.13500000
H        0.54080000       1.81290000       0.94800000
H       -2.16230000      -0.54190000      -0.28520000
H        1.46970000      -3.93260000       0.08750000
H        2.63440000      -2.70710000       0.05910000
