19
Properties=species:S:1:pos:R:3 gdb_79189=T pbc="F F F"
C       -0.19600000       1.55750000      -0.02580000
C        0.02190000       0.04690000      -0.00000000
C        0.85120000      -0.51490000      -1.15090000
O        2.25690000      -0.08650000      -0.96150000
C        2.54610000      -1.38260000      -0.41930000
C        1.21410000      -1.96090000      -0.75680000
C        1.57140000      -1.70200000       0.69780000
C        0.81140000      -0.48900000       1.24670000
O        1.66950000       0.47190000       1.83650000
H        0.75240000       2.09390000      -0.10530000
H       -0.81910000       1.84260000      -0.88000000
H       -0.69290000       1.89760000       0.88700000
H       -0.95110000      -0.46340000      -0.02700000
H        0.51390000      -0.30160000      -2.16650000
H        3.56060000      -1.75310000      -0.50200000
H        0.90560000      -2.89270000      -1.20860000
H        1.82030000      -2.53680000       1.34280000
H        0.12130000      -0.78190000       2.04270000
H        2.29050000       0.72920000       1.14330000
