20
Properties=species:S:1:pos:R:3 gdb_73572=T pbc="F F F"
C       -0.08830000       1.45860000       0.01850000
C        0.01470000      -0.05690000      -0.04920000
C       -1.26910000      -0.76280000      -0.52600000
O       -1.86610000      -1.30900000       0.65010000
C       -0.81830000      -1.77130000       1.50540000
C        0.32970000      -0.77130000       1.31740000
C        1.67860000      -1.22740000       0.72640000
N        1.36790000      -2.04670000      -0.46980000
C        1.38040000      -0.56970000      -0.57300000
H        0.80530000       1.89920000       0.47480000
H       -0.20020000       1.89430000      -0.98140000
H       -0.95640000       1.75690000       0.61570000
H       -2.00030000      -0.07830000      -0.96680000
H       -1.03400000      -1.55510000      -1.24810000
H       -1.22120000      -1.79240000       2.52180000
H       -0.50260000      -2.78400000       1.22240000
H        0.44340000      -0.07230000       2.14830000
H        2.62030000      -1.34630000       1.24790000
H        2.25370000      -2.38530000      -0.84300000
H        2.04060000      -0.06420000      -1.26850000
