21
Properties=species:S:1:pos:R:3 gdb_63061=T pbc="F F F"
C       -0.19590000       1.61610000      -0.03400000
C        0.02070000       0.10910000      -0.00650000
O       -1.24130000      -0.55340000      -0.09750000
C        1.09260000      -0.59380000      -0.90540000
C        2.39010000       0.13790000      -0.52320000
C        2.35390000      -0.30880000       0.96060000
C        2.53770000      -1.84130000       0.79630000
C        1.13440000      -1.76750000       0.17810000
C        0.79410000      -0.57510000       1.12940000
H        0.70450000       2.18420000       0.20870000
H       -0.54250000       1.94540000      -1.02240000
H       -0.96870000       1.87790000       0.69520000
H       -1.62400000      -0.32910000      -0.95270000
H        0.88730000      -0.78560000      -1.96000000
H        3.27710000      -0.24320000      -1.03820000
H        2.34570000       1.21640000      -0.68540000
H        2.92690000       0.26520000       1.68830000
H        3.38900000      -2.19460000       0.20430000
H        2.50710000      -2.37390000       1.75170000
H        0.47990000      -2.62110000       0.03040000
H        0.39060000      -0.69880000       2.13380000
