16
Properties=species:S:1:pos:R:3 gdb_33759=T pbc="F F F"
N        0.04410000      -1.10420000      -0.05930000
C        0.03180000       0.05140000      -0.02130000
C       -0.03130000       1.49080000       0.00780000
C       -0.68620000       2.42010000       1.08120000
C        0.00160000       3.33550000       0.02700000
N        1.20170000       2.38750000      -0.02740000
C       -0.61560000       2.44420000      -1.06110000
C       -0.66200000       2.40580000      -2.51890000
N       -1.90380000       2.50830000      -1.68450000
H       -1.77730000       2.43340000       1.14260000
H       -0.21410000       2.38820000       2.06650000
H        0.12470000       4.41620000       0.03680000
H        1.63480000       2.36260000       0.90220000
H       -0.43800000       3.29200000      -3.10470000
H       -0.44960000       1.46150000      -3.01280000
H       -2.38450000       1.61180000      -1.65070000
