17
Properties=species:S:1:pos:R:3 gdb_127585=T pbc="F F F"
C        0.00560000       1.41300000      -0.01390000
N        0.00730000      -0.03460000       0.04030000
N       -0.02240000      -0.74430000      -1.12380000
C       -0.01270000      -2.00890000      -0.74680000
C        0.02310000      -2.13900000       0.66580000
C        0.04240000      -3.37370000       1.43260000
O        0.03020000      -4.48650000       0.94910000
C        0.03520000      -0.82430000       1.13760000
C        0.07080000      -0.26700000       2.52220000
H        0.90680000       1.82450000       0.45130000
H       -0.01870000       1.69390000      -1.06560000
H       -0.87360000       1.82410000       0.49230000
H       -0.03130000      -2.80280000      -1.47770000
H        0.07020000      -3.24130000       2.53850000
H        0.96060000       0.35220000       2.68400000
H       -0.80510000       0.35960000       2.72630000
H        0.08510000      -1.07100000       3.25940000
