18
Properties=species:S:1:pos:R:3 gdb_98487=T pbc="F F F"
C        0.07960000       1.53720000       0.11050000
C        0.32570000       0.03190000       0.06860000
C        0.56730000      -0.49740000      -1.32950000
O        0.56480000       0.20820000      -2.31330000
C        0.82290000      -1.98490000      -1.48530000
C        0.31530000      -2.61060000      -2.79540000
C        1.76860000      -2.37800000      -2.63280000
C        0.82330000      -2.80980000      -0.30930000
N        0.82200000      -3.46790000       0.64280000
H        0.93420000       2.08460000      -0.29470000
H       -0.79370000       1.80760000      -0.48830000
H       -0.08860000       1.86770000       1.13880000
H        1.18620000      -0.25540000       0.68830000
H       -0.51650000      -0.52850000       0.49740000
H       -0.06730000      -3.62160000      -2.72810000
H       -0.23830000      -1.92450000      -3.42500000
H        2.20570000      -1.53330000      -3.15140000
H        2.42030000      -3.22340000      -2.44970000
