17
Properties=species:S:1:pos:R:3 gdb_50598=T pbc="F F F"
O        0.40490000      -0.14390000       0.06660000
C        0.15370000       1.03090000       0.07640000
C        1.19650000       2.14290000       0.08400000
O        2.49480000       1.66660000       0.36350000
C        3.15860000       1.36910000      -0.86330000
C        2.61110000       2.37720000      -1.88710000
O        1.92390000       1.78580000      -3.01080000
C        0.65130000       2.28300000      -2.55350000
C        1.28620000       2.88970000      -1.27700000
H       -0.89840000       1.40510000       0.08360000
H        0.91540000       2.83320000       0.89060000
H        4.23180000       1.46460000      -0.68070000
H        2.93240000       0.35140000      -1.20450000
H        3.34770000       3.11850000      -2.21160000
H        0.23760000       3.02910000      -3.24200000
H       -0.08070000       1.47830000      -2.42130000
H        1.16920000       3.96600000      -1.16340000
