23
Properties=species:S:1:pos:R:3 gdb_91332=T pbc="F F F"
C        0.17100000       1.52620000       0.11560000
C        0.04280000       0.01520000      -0.00720000
C        0.67590000      -0.55550000      -1.29760000
C        1.13560000      -2.00110000      -1.05570000
C        0.19690000      -2.67770000      -0.01350000
C        1.03580000      -1.91660000       1.05860000
C        1.17810000      -2.46180000       2.46120000
C        2.22300000      -1.98470000       0.05450000
O        0.61480000      -0.55480000       1.17580000
H        1.22530000       1.81980000       0.13210000
H       -0.31620000       2.02240000      -0.73000000
H       -0.29710000       1.87620000       1.03990000
H       -1.02810000      -0.24020000      -0.01950000
H       -0.06620000      -0.50370000      -2.10290000
H        1.53370000       0.05310000      -1.61100000
H        1.35090000      -2.52900000      -1.98720000
H       -0.88000000      -2.49830000      -0.06240000
H        0.37840000      -3.75350000       0.05360000
H        1.55690000      -3.48790000       2.44020000
H        1.87390000      -1.84520000       3.03910000
H        0.21260000      -2.45450000       2.97690000
H        2.76170000      -2.93430000       0.12100000
H        2.92870000      -1.14970000       0.07550000
