17
Properties=species:S:1:pos:R:3 gdb_20793=T pbc="F F F"
C        0.08780000       1.59740000      -0.23930000
C        0.00300000       0.09140000       0.05950000
C       -1.40580000      -0.40880000       0.13760000
C       -2.15260000      -0.80800000       1.22790000
C       -1.85880000      -0.91130000       2.68660000
N       -3.35410000      -1.13100000       0.68010000
N       -3.36570000      -0.95080000      -0.65440000
N       -2.18700000      -0.51290000      -0.98160000
H        1.12980000       1.92030000      -0.32770000
H       -0.42580000       1.82780000      -1.17660000
H       -0.38500000       2.18390000       0.55520000
H        0.52730000      -0.46160000      -0.72810000
H        0.52450000      -0.13250000       0.99690000
H       -2.46750000      -0.21620000       3.27630000
H       -2.04500000      -1.92130000       3.06900000
H       -0.81010000      -0.67390000       2.87650000
H       -4.18290000      -1.47800000       1.13620000
