16
Properties=species:S:1:pos:R:3 gdb_94480=T pbc="F F F"
N        0.11590000       1.37300000       0.26640000
C       -0.06710000      -0.03100000      -0.00840000
C       -1.47610000      -0.49660000      -0.45160000
O       -0.89950000      -1.13840000      -1.63590000
C        0.35380000      -0.64590000      -1.34300000
N        1.41760000      -0.67260000      -2.00730000
C        1.38870000      -1.32150000      -3.31590000
C        1.99570000      -0.45540000      -4.33460000
N        2.46060000       0.21780000      -5.14970000
H        1.07000000       1.54920000       0.56430000
H       -0.02850000       1.92460000      -0.57480000
H        0.31290000      -0.61160000       0.83660000
H       -1.99160000      -1.22360000       0.17830000
H       -2.15000000       0.31490000      -0.73770000
H        1.97640000      -2.24690000      -3.26930000
H        0.37920000      -1.59400000      -3.65020000
