23
Properties=species:S:1:pos:R:3 gdb_114230=T pbc="F F F"
C       -0.18000000       1.50780000       0.12340000
C       -0.05780000       0.00030000       0.10330000
C        1.25110000      -0.66340000      -0.26810000
C        0.74150000      -0.72590000       1.14590000
C        1.46010000      -0.15300000       2.37820000
C        1.37110000      -1.56630000       3.02950000
C        0.89100000      -1.63660000       4.46320000
O        0.74370000      -3.00620000       4.81130000
C        0.37920000      -2.00540000       1.91180000
H        0.74420000       1.97510000       0.47940000
H       -0.38620000       1.90430000      -0.87710000
H       -0.99090000       1.83580000       0.78410000
H       -0.95360000      -0.51860000      -0.23300000
H        1.22380000      -1.56880000      -0.86710000
H        2.10210000      -0.01910000      -0.47320000
H        2.46310000       0.25560000       2.22870000
H        0.86030000       0.59220000       2.91460000
H        2.31950000      -2.10490000       2.94600000
H        1.61510000      -1.13070000       5.12420000
H       -0.06710000      -1.09700000       4.55530000
H        0.40440000      -3.05450000       5.70970000
H       -0.65910000      -2.01810000       2.26230000
H        0.58730000      -2.95750000       1.41720000
