21
Properties=species:S:1:pos:R:3 gdb_108827=T pbc="F F F"
C       -0.19180000       1.59580000       0.07460000
C        0.01720000       0.07510000       0.01560000
C        0.79630000      -0.40410000      -1.19590000
C        1.79370000      -1.23220000      -0.87340000
C        2.74850000      -1.90850000      -1.80240000
O        2.41810000      -1.60020000      -3.14430000
C        1.90660000      -1.39530000       0.61010000
C        2.26220000      -0.12480000       1.35880000
C        0.81490000      -0.51330000       1.18660000
H        0.76440000       2.12740000       0.10060000
H       -0.74690000       1.94820000      -0.80120000
H       -0.76050000       1.87830000       0.96670000
H       -0.98120000      -0.38940000       0.00570000
H        0.56640000      -0.08630000      -2.20540000
H        3.77790000      -1.59050000      -1.55710000
H        2.71600000      -2.99820000      -1.62060000
H        3.05660000      -2.03510000      -3.71610000
H        2.17270000      -2.35660000       1.03860000
H        2.67670000      -0.22740000       2.35670000
H        2.66830000       0.70050000       0.78320000
H        0.27470000      -0.81690000       2.07590000
