19
Properties=species:S:1:pos:R:3 gdb_38670=T pbc="F F F"
C       -0.00650000       1.57260000      -0.05300000
C        1.52310000       1.53960000       0.05610000
O        2.03370000       0.76480000      -1.04740000
C        1.54680000       0.06780000       0.09650000
C        2.34200000      -0.95000000       0.84120000
C        1.68980000      -1.18870000       2.22140000
C        0.17940000      -1.15120000       2.19920000
C       -0.56820000      -0.63180000       1.22170000
C        0.01560000      -0.00930000      -0.00740000
H       -0.48840000       2.00440000       0.82750000
H       -0.40600000       2.03250000      -0.96010000
H        2.19640000       2.27290000       0.48620000
H        2.34060000      -1.88620000       0.26790000
H        3.38500000      -0.63590000       0.94430000
H        2.02940000      -2.14810000       2.62980000
H        2.04770000      -0.42820000       2.93060000
H       -0.31400000      -1.57010000       3.07370000
H       -1.65270000      -0.64150000       1.31130000
H       -0.35440000      -0.48480000      -0.92230000
