15
Properties=species:S:1:pos:R:3 gdb_61728=T pbc="F F F"
C       -0.04080000       1.96490000       0.11260000
C       -0.13880000       0.46160000      -0.14990000
O        0.41560000       0.22680000      -1.44790000
C        0.11640000      -0.95950000      -2.03410000
N        0.61360000      -1.23580000      -3.15640000
C        0.56360000      -0.32130000       0.87110000
C        1.13940000      -0.96830000       1.71280000
C        1.78910000      -1.69790000       2.66730000
N        2.33760000      -2.31890000       3.48120000
H        1.00380000       2.28180000       0.08890000
H       -0.59230000       2.49970000      -0.66360000
H       -0.46500000       2.20630000       1.08980000
H       -1.19660000       0.15920000      -0.14490000
H       -0.56860000      -1.58250000      -1.44370000
H        0.28500000      -2.14530000      -3.47380000
