25
Properties=species:S:1:pos:R:3 gdb_59545=T pbc="F F F"
C        0.02760000       1.52870000      -0.09160000
C        0.06570000       0.00390000       0.08580000
C        0.73920000      -0.37740000       1.41120000
C       -1.34340000      -0.58790000      -0.02020000
C       -2.09380000      -0.52540000      -1.39670000
C       -2.30810000      -2.04000000      -1.32880000
C       -0.98000000      -2.74210000      -1.24920000
C       -1.54920000      -2.12110000       0.00030000
C       -1.87360000      -2.92370000       1.22960000
H        1.03610000       1.95500000      -0.06700000
H       -0.43250000       1.81280000      -1.04350000
H       -0.55130000       2.00110000       0.71150000
H        0.67250000      -0.41160000      -0.73090000
H        0.15870000      -0.01060000       2.26670000
H        0.83720000      -1.46230000       1.51370000
H        1.74250000       0.05630000       1.48320000
H       -1.97110000      -0.13280000       0.75710000
H       -3.01690000       0.05640000      -1.35050000
H       -1.50530000      -0.17210000      -2.25170000
H       -3.21140000      -2.56260000      -1.62210000
H       -1.02440000      -3.82680000      -1.27750000
H       -0.10820000      -2.32720000      -1.75030000
H       -0.99800000      -3.05610000       1.87630000
H       -2.65280000      -2.43610000       1.82770000
H       -2.23650000      -3.92220000       0.96240000
