19
Properties=species:S:1:pos:R:3 gdb_58147=T pbc="F F F"
C        0.01250000       1.31890000      -0.62960000
C       -0.34830000       0.21410000       0.36030000
O       -0.66390000       0.84950000       1.59910000
C       -1.52020000      -0.61780000      -0.16710000
N       -2.74180000      -0.26990000       0.35140000
N       -1.25630000      -1.54400000      -1.00970000
C       -2.36500000      -2.35080000      -1.51850000
C       -3.38710000      -1.61200000      -2.27000000
C       -4.22410000      -0.97850000      -2.85900000
H        0.85700000       1.89930000      -0.24900000
H        0.27710000       0.87830000      -1.59260000
H       -0.83610000       1.99530000      -0.77290000
H        0.50560000      -0.46430000       0.47240000
H       -0.73740000       0.16620000       2.27380000
H       -2.74820000       0.57800000       0.89870000
H       -3.56360000      -0.45630000      -0.20380000
H       -1.94470000      -3.12330000      -2.17200000
H       -2.86500000      -2.88490000      -0.69290000
H       -4.95220000      -0.43360000      -3.40740000
