20
Properties=species:S:1:pos:R:3 gdb_9386=T pbc="F F F"
C        0.01490000       1.50680000       0.06660000
C        0.01720000      -0.01160000       0.01970000
O        0.69080000      -0.49720000       1.16400000
C        0.75230000      -1.90320000       1.22300000
C        1.47840000      -2.29770000       2.52040000
C        0.71910000      -1.80710000       3.76810000
C        1.69070000      -3.74280000       2.55010000
C        1.83970000      -4.93560000       2.56930000
H        1.03850000       1.89170000       0.07870000
H       -0.49950000       1.91440000      -0.80880000
H       -0.49550000       1.86220000       0.96630000
H       -1.01470000      -0.40090000      -0.00610000
H        0.51820000      -0.37060000      -0.89520000
H       -0.25950000      -2.34260000       1.21480000
H        1.29390000      -2.30800000       0.35350000
H        2.45760000      -1.80090000       2.49480000
H        0.56460000      -0.72830000       3.70270000
H       -0.25680000      -2.29750000       3.83960000
H        1.28050000      -2.03460000       4.67770000
H        1.98470000      -5.98720000       2.59090000
