18
Properties=species:S:1:pos:R:3 gdb_125173=T pbc="F F F"
C       -0.12480000       1.51230000       0.10260000
C       -0.07530000       0.02780000      -0.05660000
C        0.10540000      -0.75950000      -1.17530000
C        0.36240000      -0.78520000      -2.65040000
C        0.08900000      -2.28250000      -3.00390000
C        0.27000000      -3.07230000      -1.68030000
N        0.05250000      -2.02240000      -0.69690000
N       -0.14030000      -2.06420000       0.62370000
N       -0.22420000      -0.81350000       1.01370000
H        0.83460000       1.98330000      -0.13960000
H       -0.88420000       1.96820000      -0.54210000
H       -0.36740000       1.75260000       1.14000000
H       -0.28220000      -0.10830000      -3.21710000
H        1.39830000      -0.50410000      -2.87640000
H       -0.94290000      -2.39040000      -3.34880000
H        0.74260000      -2.65480000      -3.79480000
H       -0.45130000      -3.88190000      -1.55300000
H        1.27830000      -3.48630000      -1.57090000
