17
Properties=species:S:1:pos:R:3 gdb_34386=T pbc="F F F"
N       -0.05020000      -1.13980000      -0.05960000
C       -0.04060000       0.01520000      -0.01390000
C       -0.06470000       1.48280000       0.03160000
C       -0.36140000       2.19490000      -1.32380000
C        0.86680000       3.07870000      -1.00700000
N        1.27480000       2.15300000       0.08720000
C        1.42580000       2.76080000       1.41880000
C        0.03960000       2.69770000       2.02470000
C       -0.79150000       1.99360000       1.26050000
H       -0.22620000       1.53800000      -2.18340000
H       -1.32870000       2.69290000      -1.38990000
H        1.61720000       3.17920000      -1.79560000
H        0.59350000       4.07890000      -0.64690000
H        2.15380000       2.21100000       2.03140000
H        1.80570000       3.78530000       1.31910000
H       -0.21270000       3.14910000       2.97720000
H       -1.82660000       1.75350000       1.46760000
