18
Properties=species:S:1:pos:R:3 gdb_48995=T pbc="F F F"
O       -0.07130000      -0.08260000       0.11980000
C       -0.00520000       1.11980000       0.14490000
C        1.27470000       1.92770000       0.05340000
C        2.54950000       1.07550000      -0.03590000
C        2.83750000       1.04910000      -1.57630000
C        2.23230000       2.36210000      -2.07220000
C        1.33810000       2.78880000      -1.19050000
C        0.78880000       3.96750000      -0.42230000
N        1.17930000       3.21820000       0.82790000
H       -0.92610000       1.74290000       0.24500000
H        3.35810000       1.59690000       0.48300000
H        2.43000000       0.07760000       0.39020000
H        3.90920000       0.99740000      -1.79440000
H        2.37890000       0.17220000      -2.05080000
H        2.58260000       2.88390000      -2.95510000
H        1.29530000       4.92870000      -0.55150000
H       -0.29390000       4.11980000      -0.52780000
H        0.45540000       3.21660000       1.54430000
