18
Properties=species:S:1:pos:R:3 gdb_17489=T pbc="F F F"
O       -0.04310000       1.38370000       0.03360000
C        0.00720000      -0.01690000       0.02470000
C        0.27060000      -0.72290000      -1.35270000
C       -0.95040000      -1.60240000      -1.07790000
C       -0.93280000      -2.12470000       0.35070000
C        0.39600000      -2.15280000       1.11230000
C        0.84210000      -0.66760000       1.13870000
C       -1.37860000      -0.71730000       0.07930000
H        0.85730000       1.71650000      -0.04710000
H        0.07540000      -0.01960000      -2.16630000
H        1.24380000      -1.20500000      -1.50800000
H       -1.57200000      -2.07150000      -1.83170000
H       -1.68550000      -2.87270000       0.57440000
H        0.25860000      -2.54590000       2.12380000
H        1.13350000      -2.79510000       0.61890000
H        1.91940000      -0.54260000       0.97820000
H        0.58450000      -0.19490000       2.09300000
H       -2.32870000      -0.26390000       0.32630000
