14
Properties=species:S:1:pos:R:3 gdb_124096=T pbc="F F F"
C        0.02370000       1.38200000       0.02240000
O        1.30510000       1.94760000      -0.01790000
C        2.08350000       1.68030000       1.15140000
C        1.87190000       0.24160000       1.48900000
C        0.91020000      -0.51980000       0.87180000
O        0.03710000      -0.04580000      -0.04200000
N        0.96720000      -1.79780000       1.30630000
N        1.93350000      -1.87910000       2.18550000
N        2.48350000      -0.65210000       2.30430000
H       -0.50510000       1.68060000       0.94180000
H       -0.50500000       1.72380000      -0.86640000
H        3.11930000       1.90710000       0.87940000
H        1.79430000       2.35430000       1.97340000
H        3.24840000      -0.52300000       2.94690000
