19
Properties=species:S:1:pos:R:3 gdb_112091=T pbc="F F F"
O        0.14980000       1.29820000      -0.19350000
C        0.01960000      -0.11590000      -0.21340000
C       -1.44550000      -0.45910000       0.09540000
C       -2.37160000       0.08290000      -0.96240000
C       -3.35610000      -0.60510000      -1.53500000
C       -3.70250000      -2.03130000      -1.20680000
C       -2.68390000      -2.71090000      -0.32150000
O       -1.34670000      -2.78790000      -0.82620000
C       -1.59750000      -1.94990000       0.31100000
H        1.01120000       1.52670000      -0.55330000
H        0.28460000      -0.53670000      -1.19310000
H        0.67220000      -0.58380000       0.54160000
H       -1.67830000       0.03460000       1.05200000
H       -2.18320000       1.11190000      -1.25200000
H       -3.97300000      -0.12540000      -2.29100000
H       -4.68170000      -2.07520000      -0.70720000
H       -3.82120000      -2.61500000      -2.13060000
H       -3.02140000      -3.62700000       0.16480000
H       -1.16800000      -2.33220000       1.23860000
