19
Properties=species:S:1:pos:R:3 gdb_127097=T pbc="F F F"
C        0.16680000       1.38730000       0.05240000
N       -0.28050000       0.01170000       0.00240000
C       -0.00180000      -0.79320000       1.18260000
C       -0.18360000      -0.61780000      -1.22520000
C        0.03140000      -0.07910000      -2.48270000
N       -0.03510000      -1.15570000      -3.31510000
C        0.11010000      -1.19860000      -4.75390000
N       -0.25760000      -2.28040000      -2.62960000
N       -0.34660000      -1.96550000      -1.36300000
H        1.25390000       1.49890000      -0.10600000
H       -0.35160000       1.98000000      -0.70850000
H       -0.08080000       1.81040000       1.02950000
H       -0.41350000      -0.28990000       2.06250000
H       -0.47650000      -1.76790000       1.07370000
H        1.07720000      -0.95230000       1.34520000
H        0.21830000       0.91660000      -2.84230000
H        1.09230000      -0.82250000      -5.05540000
H        0.01100000      -2.24100000      -5.05610000
H       -0.66710000      -0.60150000      -5.24020000
