23
Properties=species:S:1:pos:R:3 gdb_58589=T pbc="F F F"
C        0.14840000       1.44000000       0.23130000
C       -0.12190000      -0.06640000       0.14520000
O        0.36530000      -0.71910000       1.31370000
C       -1.59670000      -0.46000000      -0.16450000
C       -2.05400000       0.12560000      -1.50480000
C       -1.73080000      -2.01190000      -0.11670000
C       -2.26530000      -2.31500000       1.30360000
O       -2.33170000      -1.06030000       1.99420000
C       -2.53690000      -0.06730000       0.99450000
H        1.20330000       1.59250000       0.47340000
H       -0.06310000       1.95300000      -0.71160000
H       -0.44170000       1.91710000       1.02120000
H        0.48540000      -0.46760000      -0.67850000
H       -0.33760000      -0.68930000       1.97790000
H       -1.37880000      -0.16770000      -2.31580000
H       -3.05630000      -0.23360000      -1.76080000
H       -2.09110000       1.21900000      -1.48440000
H       -2.43440000      -2.35950000      -0.87820000
H       -0.77040000      -2.49790000      -0.29710000
H       -3.26760000      -2.76420000       1.26730000
H       -1.61190000      -2.97180000       1.88220000
H       -2.32660000       0.90570000       1.44510000
H       -3.58610000      -0.06730000       0.65520000
