23
Properties=species:S:1:pos:R:3 gdb_65658=T pbc="F F F"
O        0.23170000       1.37620000       0.23620000
C        0.08020000      -0.01380000       0.06840000
C       -1.35300000      -0.50630000       0.16850000
C       -2.29140000       0.09490000      -0.87200000
C       -2.17420000      -0.32210000      -2.36860000
C       -3.72320000      -0.28580000      -2.45820000
C       -3.77330000      -0.37470000      -0.90910000
C        1.07180000      -0.70380000      -0.83910000
C        1.19280000      -0.81490000       0.66980000
H       -0.06420000       1.80490000      -0.57370000
H       -1.36310000      -1.60040000       0.08000000
H       -1.73110000      -0.26590000       1.17170000
H       -2.26810000       1.18900000      -0.79260000
H       -1.60400000       0.32170000      -3.04340000
H       -1.79170000      -1.34380000      -2.46410000
H       -4.08500000       0.68160000      -2.81880000
H       -4.21860000      -1.07400000      -3.02980000
H       -3.86600000      -1.41200000      -0.56920000
H       -4.51470000       0.22980000      -0.38050000
H        0.75370000      -1.57660000      -1.39880000
H        1.79540000      -0.07580000      -1.34700000
H        1.98770000      -0.25310000       1.14600000
H        0.95340000      -1.76200000       1.14110000
