18
Properties=species:S:1:pos:R:3 gdb_13023=T pbc="F F F"
C       -0.01600000       1.57270000      -0.03970000
C        0.03070000       0.04670000       0.02350000
C        0.79390000      -0.60820000      -1.14860000
O        1.33840000      -1.83960000      -0.66750000
C        1.50150000      -1.71710000       0.71960000
C        2.25170000      -0.51380000       1.26630000
C        0.73180000      -0.55200000       1.24170000
O        0.01660000      -0.64900000       2.43430000
H        0.99230000       2.00100000      -0.03120000
H       -0.52090000       1.92050000      -0.94710000
H       -0.56410000       1.98320000       0.81520000
H       -0.99390000      -0.34480000       0.05360000
H        0.15570000      -0.83630000      -2.00660000
H        1.60220000       0.05260000      -1.49760000
H        1.55670000      -2.67220000       1.22730000
H        2.70920000      -0.65140000       2.24040000
H        2.79860000       0.13710000       0.59220000
H        0.08320000       0.19640000       2.89160000
