18
Properties=species:S:1:pos:R:3 gdb_31547=T pbc="F F F"
C       -0.05300000       1.42380000       0.17410000
N        0.28090000       0.02430000      -0.03320000
C        0.73610000      -0.75040000       0.99710000
N        0.69230000      -2.04810000       1.07390000
C        1.35450000      -2.33500000       2.27050000
C        1.54150000      -3.73260000       2.75070000
C        1.75580000      -1.18810000       2.86390000
N        2.42760000      -0.90710000       4.04560000
O        1.34490000      -0.12670000       2.02200000
H        0.80640000       1.94490000       0.60090000
H       -0.28010000       1.87600000      -0.79370000
H       -0.91240000       1.57520000       0.84370000
H       -0.32200000      -0.49580000      -0.65250000
H        2.10640000      -4.32340000       2.02120000
H        2.07910000      -3.73860000       3.70130000
H        0.57560000      -4.23140000       2.88740000
H        3.30770000      -0.42270000       3.90070000
H        1.87340000      -0.37100000       4.70600000
