13
Properties=species:S:1:pos:R:3 gdb_3312=T pbc="F F F"
O       -0.03970000      -0.04920000      -0.08780000
C        0.01700000       1.12980000       0.15920000
C        1.26900000       1.96050000       0.05020000
C        1.22310000       3.21950000      -0.90680000
C        1.50080000       4.10600000       0.31330000
O        0.44360000       3.87060000       1.25000000
C        1.53350000       2.94540000       1.21560000
H       -0.87870000       1.69750000       0.49040000
H        2.12070000       1.31350000      -0.16710000
H        2.03570000       3.19350000      -1.63490000
H        0.27790000       3.41970000      -1.41730000
H        2.00360000       5.06380000       0.36830000
H        2.06610000       2.76460000       2.14160000
