17
Properties=species:S:1:pos:R:3 gdb_118615=T pbc="F F F"
C       -0.66150000       0.62910000       0.10310000
O        0.70440000       0.23400000       0.12380000
C        1.09060000      -0.55340000       1.20940000
C        0.78760000      -2.05580000       1.04750000
O       -0.61790000      -2.24770000       1.18290000
C       -1.05490000      -3.52810000       1.32260000
N       -2.28710000      -3.74210000       1.45150000
C        1.27590000      -2.57110000      -0.24490000
N        1.66540000      -3.00870000      -1.24010000
H       -0.94400000       1.11710000       1.04700000
H       -0.75930000       1.34840000      -0.71260000
H       -1.33470000      -0.21590000      -0.07060000
H        2.17650000      -0.44850000       1.30920000
H        0.61750000      -0.22950000       2.14880000
H        1.31740000      -2.59350000       1.84770000
H       -0.24800000      -4.27140000       1.30970000
H       -2.46440000      -4.73920000       1.55310000
