17
Properties=species:S:1:pos:R:3 gdb_74909=T pbc="F F F"
N       -0.07650000       1.39930000      -0.14250000
C       -0.06480000       0.02500000      -0.09220000
N       -1.13610000      -0.65850000      -0.06030000
C       -1.03620000      -2.08450000      -0.05830000
C       -1.49660000      -2.85650000      -1.27690000
C       -0.03560000      -2.79030000      -0.94460000
O        0.72140000      -1.96480000      -1.79520000
C        1.70540000      -1.24750000      -1.13540000
O        1.22220000      -0.45590000      -0.04270000
H        0.75270000       1.84970000       0.21080000
H       -0.95160000       1.82070000       0.12940000
H       -1.25460000      -2.53990000       0.90580000
H       -2.01660000      -3.79810000      -1.14110000
H       -1.81420000      -2.26470000      -2.12770000
H        0.49140000      -3.67650000      -0.59240000
H        2.46890000      -1.89250000      -0.67860000
H        2.15860000      -0.59660000      -1.89160000
