13
Properties=species:S:1:pos:R:3 gdb_22028=T pbc="F F F"
N        0.05880000       1.31570000      -0.00480000
C        0.04090000      -0.04610000       0.02870000
N       -1.09900000      -0.65910000       0.11870000
O       -1.08490000      -2.05810000       0.23010000
N        0.05830000      -2.79350000       0.22730000
C        1.18830000      -2.18460000       0.10850000
C        1.31610000      -0.75300000      -0.01330000
N        2.39280000      -0.05640000      -0.15750000
O        3.52680000      -0.86400000      -0.20160000
H        0.90010000       1.73630000      -0.36580000
H       -0.81620000       1.77880000      -0.19210000
H        2.06450000      -2.81970000       0.10890000
H        4.24050000      -0.22350000      -0.29280000
