17
Properties=species:S:1:pos:R:3 gdb_128820=T pbc="F F F"
C       -0.26820000       1.36290000      -0.27570000
O       -0.29250000      -0.04600000      -0.32790000
C        0.89990000      -0.59220000      -0.87830000
C        0.74280000      -2.07100000      -0.96010000
N        1.69390000      -2.93250000      -0.59890000
N        1.15630000      -4.11140000      -0.85310000
N       -0.09210000      -4.10940000      -1.34020000
C       -0.37340000      -2.81010000      -1.42200000
N       -1.56060000      -2.30980000      -1.93080000
H        0.55310000       1.72920000       0.35880000
H       -0.15360000       1.80680000      -1.27700000
H       -1.21850000       1.69030000       0.15200000
H        1.07030000      -0.15690000      -1.87850000
H        1.77320000      -0.34370000      -0.25780000
H        1.65130000      -4.96940000      -0.68100000
H       -2.31230000      -2.98550000      -1.92040000
H       -1.81880000      -1.43900000      -1.48510000
