17
Properties=species:S:1:pos:R:3 gdb_62523=T pbc="F F F"
C       -0.01430000       1.48890000      -0.36290000
C        0.00790000       0.01210000      -0.04540000
O       -1.16670000      -0.66810000      -0.36620000
C        1.29880000      -0.81730000      -0.20360000
C        2.57830000      -0.21980000      -0.63700000
O        3.05570000       0.81950000      -0.23650000
C        0.66060000      -0.54270000       1.18230000
C        1.31240000       0.31820000       2.21320000
O        1.27240000       0.03900000       3.38740000
H        0.94260000       1.96800000      -0.15660000
H       -0.23590000       1.63660000      -1.42700000
H       -0.80010000       1.98060000       0.21780000
H       -1.39750000      -0.45620000      -1.27820000
H        1.11880000      -1.82170000      -0.57170000
H        3.09970000      -0.80990000      -1.42220000
H        0.16310000      -1.40700000       1.60940000
H        1.82730000       1.22340000       1.84810000
