18
Properties=species:S:1:pos:R:3 gdb_112075=T pbc="F F F"
C        0.05160000       1.53120000       0.08530000
C        0.07400000       0.00120000       0.05040000
C        0.69140000      -0.54410000      -1.24370000
N        2.10170000      -0.13970000      -1.38310000
C        2.76020000      -1.19140000      -1.62480000
O        2.12320000      -2.38470000      -1.70970000
C        0.75240000      -2.11760000      -1.37690000
C        0.36760000      -2.87550000      -0.11710000
O        1.14760000      -3.39010000       0.63690000
H        1.06300000       1.93320000      -0.00770000
H       -0.54770000       1.93570000      -0.73800000
H       -0.38200000       1.89200000       1.02250000
H        0.64220000      -0.38420000       0.90520000
H       -0.94870000      -0.38510000       0.14700000
H        0.13400000      -0.12980000      -2.09320000
H        3.83040000      -1.24640000      -1.78780000
H        0.11780000      -2.47360000      -2.19650000
H       -0.73180000      -2.91320000       0.05780000
