14
Properties=species:S:1:pos:R:3 gdb_30609=T pbc="F F F"
C       -0.01440000       1.35970000       0.00600000
O        0.02240000      -0.07320000      -0.03420000
C        0.63450000      -0.59110000      -1.10570000
O        1.13490000       0.04360000      -2.00000000
C        0.61970000      -2.07200000      -1.05410000
N        0.11930000      -2.86810000      -0.15690000
C        0.39830000      -4.13520000      -0.62800000
C        1.06580000      -4.02950000      -1.80720000
O        1.21390000      -2.71300000      -2.09180000
H        0.99860000       1.76990000       0.01400000
H       -0.54780000       1.75480000      -0.86220000
H       -0.53860000       1.61300000       0.92680000
H        0.10290000      -5.02270000      -0.09160000
H        1.47530000      -4.72690000      -2.51770000
