19
Properties=species:S:1:pos:R:3 gdb_79465=T pbc="F F F"
C       -0.22100000       1.64570000       0.07650000
C        0.02240000       0.14460000       0.00710000
C        0.64280000      -0.54870000      -1.21880000
C        2.22270000      -0.38440000      -1.20140000
C        2.45210000       0.13620000       0.22950000
C        1.18910000      -0.56660000       0.77340000
O        1.10060000      -0.91260000       2.11770000
C        1.11750000      -1.71800000      -0.33490000
O        2.38410000      -1.82220000      -0.99490000
H        0.63640000       2.23100000      -0.26780000
H       -1.07510000       1.92570000      -0.54940000
H       -0.45340000       1.96060000       1.10080000
H       -0.90410000      -0.38930000       0.25370000
H        0.14810000      -0.67910000      -2.17870000
H        2.80290000       0.01020000      -2.03440000
H        3.37780000      -0.27510000       0.63690000
H        2.44010000       1.22190000       0.34500000
H        1.32110000      -0.14230000       2.65210000
H        0.59720000      -2.64990000      -0.12090000
