19
Properties=species:S:1:pos:R:3 gdb_115862=T pbc="F F F"
O       -0.07410000       1.42280000      -0.05210000
C        0.03280000       0.00360000      -0.00830000
C       -1.38710000      -0.55000000       0.04650000
C       -2.22120000      -0.19340000      -1.20930000
O       -2.91900000      -1.38020000      -1.63970000
C       -2.52400000      -2.48490000      -0.86630000
C       -1.09830000      -2.90900000      -1.08820000
O       -0.40490000      -2.36290000      -2.17060000
C       -1.47460000      -2.06710000       0.12790000
H        0.80450000       1.78670000      -0.19270000
H        0.54210000      -0.39410000      -0.89550000
H        0.59190000      -0.32510000       0.88210000
H       -1.87180000      -0.13090000       0.93560000
H       -2.96540000       0.58420000      -1.01430000
H       -1.57100000       0.15440000      -2.01890000
H       -3.33140000      -3.18290000      -0.67430000
H       -0.83050000      -3.94330000      -0.88290000
H       -1.07640000      -2.06440000      -2.79830000
H       -1.40520000      -2.53680000       1.10260000
