19
Properties=species:S:1:pos:R:3 gdb_103585=T pbc="F F F"
C       -0.15990000       1.57840000       0.00530000
C        0.00940000       0.05680000       0.01370000
C        0.76570000      -0.50040000       1.23200000
O        0.01210000      -0.08530000       2.37570000
C        0.95250000      -2.03740000       1.15340000
C        2.46760000      -2.28380000       1.15110000
O        3.01850000      -3.35390000       1.04730000
C        3.11670000      -0.95630000       1.29780000
C        2.19460000       0.01080000       1.33650000
H        0.80050000       2.09650000      -0.08530000
H       -0.77760000       1.88850000      -0.84270000
H       -0.64400000       1.91670000       0.92420000
H       -0.97760000      -0.42070000       0.00900000
H        0.52780000      -0.27590000      -0.89290000
H        0.49740000      -0.34830000       3.16530000
H        0.49640000      -2.52600000       2.01960000
H        0.50280000      -2.48510000       0.26270000
H        4.19190000      -0.84160000       1.36080000
H        2.39190000       1.07060000       1.45610000
