18
Properties=species:S:1:pos:R:3 gdb_88127=T pbc="F F F"
C       -0.13530000       1.50990000      -0.07350000
C       -0.01790000       0.01380000       0.06790000
N        1.29480000      -0.58520000      -0.17830000
C        0.75340000      -0.63040000       1.18040000
C        1.42620000       0.03680000       2.36030000
C        0.77330000      -0.70180000       3.54470000
O        0.31410000      -1.97320000       3.03500000
C        0.24190000      -1.94900000       1.68360000
O       -0.15450000      -2.87200000       1.02500000
H        0.78370000       2.00850000       0.24440000
H       -0.31300000       1.77610000      -1.12060000
H       -0.97190000       1.89670000       0.51810000
H       -0.88040000      -0.55880000      -0.26970000
H        1.17820000      -1.51060000      -0.59250000
H        2.50450000      -0.14570000       2.32720000
H        1.26690000       1.11530000       2.41400000
H        1.46070000      -0.90800000       4.36680000
H       -0.09430000      -0.16150000       3.93850000
