20
Properties=species:S:1:pos:R:3 gdb_118006=T pbc="F F F"
C        0.02250000       1.59320000       0.05600000
C        0.01910000       0.06370000      -0.00140000
C       -1.39440000      -0.52830000      -0.00850000
C       -1.40660000      -2.05740000       0.00980000
O       -0.81260000      -2.60270000       1.17400000
C       -2.84840000      -2.60740000      -0.16100000
O       -3.46750000      -2.17110000      -1.35680000
C       -2.86090000      -4.08020000      -0.06300000
N       -2.88250000      -5.23520000      -0.05090000
H        1.04310000       1.98740000       0.05350000
H       -0.50430000       2.02510000      -0.80210000
H       -0.47230000       1.95750000       0.96340000
H        0.55170000      -0.27250000      -0.90060000
H        0.57420000      -0.34610000       0.84970000
H       -1.95510000      -0.16570000       0.86820000
H       -1.95110000      -0.18450000      -0.88690000
H       -0.80390000      -2.44250000      -0.82360000
H       -1.20970000      -2.17930000       1.94400000
H       -3.46860000      -2.20900000       0.65210000
H       -3.05020000      -2.62670000      -2.09740000
