15
Properties=species:S:1:pos:R:3 gdb_25500=T pbc="F F F"
O       -0.31760000       0.04900000       0.17270000
C       -0.04860000       1.20760000       0.00220000
C        1.35600000       1.71910000      -0.30450000
C        1.34990000       2.82040000      -1.33240000
N        1.98200000       2.58900000      -2.48800000
C        1.95680000       3.57670000      -3.38520000
C        1.30350000       4.78070000      -3.15250000
C        0.66770000       4.90670000      -1.92330000
N        0.68730000       3.93880000      -1.00640000
H       -0.81570000       2.00820000       0.07400000
H        1.74030000       2.12730000       0.64060000
H        1.98780000       0.88920000      -0.62010000
H        2.47780000       3.39100000      -4.32180000
H        1.28860000       5.57540000      -3.88830000
H        0.12710000       5.81310000      -1.65930000
