16
Properties=species:S:1:pos:R:3 gdb_99563=T pbc="F F F"
C        0.12240000       1.39740000       0.14690000
O       -0.11940000       0.01160000      -0.05600000
C        0.56060000      -0.54720000      -1.14500000
C        2.01660000      -0.64450000      -0.89270000
N        3.14900000      -0.74020000      -0.68390000
C       -0.02280000      -1.98110000      -1.35320000
N        0.05170000      -2.84850000      -0.19090000
C       -1.42130000      -1.84340000      -1.79590000
N       -2.50790000      -1.71750000      -2.16490000
H        1.17910000       1.59070000       0.37240000
H       -0.17210000       1.98230000      -0.73480000
H       -0.48970000       1.69650000       0.99870000
H        0.41120000       0.04660000      -2.06060000
H        0.53640000      -2.44850000      -2.17180000
H        1.02300000      -3.06090000       0.01570000
H       -0.33860000      -2.36880000       0.61470000
