13
Properties=species:S:1:pos:R:3 gdb_5453=T pbc="F F F"
C        0.03000000       1.51510000       0.08550000
C        0.04270000       0.02660000       0.00130000
C       -0.06760000      -0.76630000      -1.12960000
N        0.00140000      -2.07460000      -0.67310000
C        0.14550000      -2.01140000       0.67140000
N        0.17420000      -0.76960000       1.10820000
C       -0.21900000      -0.43740000      -2.49060000
N       -0.34380000      -0.16440000      -3.61090000
H        0.95850000       1.88310000       0.53370000
H       -0.08230000       1.96550000      -0.90330000
H       -0.79330000       1.85720000       0.72070000
H       -0.04870000      -2.90170000      -1.24540000
H        0.22480000      -2.89740000       1.28370000
