19
Properties=species:S:1:pos:R:3 gdb_12011=T pbc="F F F"
C       -0.02240000       1.52460000       0.00950000
C        0.03520000      -0.00070000      -0.00870000
O       -1.28200000      -0.56390000       0.05220000
C        0.82650000      -0.57720000      -1.21460000
C        1.35630000      -1.95300000      -0.74880000
C        1.53700000      -1.77690000       0.74770000
N        2.21800000      -0.50690000       1.10000000
C        0.74690000      -0.60760000       1.19240000
H        0.98400000       1.94240000       0.10090000
H       -0.46850000       1.91340000      -0.91430000
H       -0.62820000       1.87270000       0.85180000
H       -1.79020000      -0.19350000      -0.67700000
H        0.18780000      -0.64590000      -2.10050000
H        1.66170000       0.08450000      -1.45430000
H        0.61270000      -2.73760000      -0.92490000
H        2.27920000      -2.24030000      -1.26210000
H        1.68440000      -2.64080000       1.38780000
H        2.61070000      -0.58930000       2.03420000
H        0.25700000      -0.56020000       2.15930000
