18
Properties=species:S:1:pos:R:3 gdb_69463=T pbc="F F F"
O       -0.23220000       1.37260000      -0.11020000
C       -0.02530000       0.00180000       0.02300000
C       -0.13060000      -0.88820000      -1.19730000
C       -1.19260000      -0.92690000      -0.10550000
N       -1.05340000      -1.94400000       0.89780000
C        0.28090000      -1.91130000       1.50670000
C        0.80140000      -0.48750000       1.20990000
C       -1.99240000      -2.85970000       1.23880000
O       -1.84170000      -3.72110000       2.08270000
H        0.53790000       1.75110000      -0.54880000
H       -0.41890000      -0.39150000      -2.11740000
H        0.53590000      -1.73610000      -1.31710000
H       -2.19600000      -0.57390000      -0.30820000
H        0.20190000      -2.13960000       2.57080000
H        0.92270000      -2.67890000       1.05750000
H        1.88030000      -0.47820000       1.02790000
H        0.59420000       0.18650000       2.04680000
H       -2.93220000      -2.72430000       0.66740000
