16
Properties=species:S:1:pos:R:3 gdb_16505=T pbc="F F F"
O       -0.23950000       1.32780000       0.12590000
C       -0.06430000      -0.04650000       0.01480000
C       -0.42920000      -0.77430000      -1.25450000
C       -1.24230000      -0.99010000       0.01010000
C       -0.74090000      -1.97180000       1.08980000
C        0.73610000      -2.26520000       0.74280000
C        0.78310000      -0.76230000       1.09580000
O       -0.23860000      -1.04190000       2.11800000
H        0.46150000       1.76020000      -0.37340000
H       -0.91990000      -0.14700000      -1.99350000
H        0.18750000      -1.55500000      -1.68430000
H       -2.25880000      -0.62110000       0.06110000
H       -1.43030000      -2.72250000       1.47430000
H        1.20370000      -2.85760000       1.52870000
H        1.02950000      -2.62760000      -0.24280000
H        1.66490000      -0.24720000       1.47670000
