23
Properties=species:S:1:pos:R:3 gdb_101453=T pbc="F F F"
C       -0.04150000       1.54210000      -0.02750000
C        0.02180000       0.00800000      -0.06350000
C        0.72310000      -0.45720000      -1.34270000
O       -0.01110000       0.02920000      -2.45930000
C        0.70580000      -0.56540000       1.19650000
C        0.02560000      -0.13540000       2.52830000
C        0.18320000      -1.33320000       3.49630000
C        0.42640000      -2.48930000       2.55700000
C        0.71020000      -2.07830000       1.32280000
H        0.96530000       1.96850000       0.06690000
H       -0.48410000       1.92500000      -0.94900000
H       -0.63570000       1.90200000       0.81680000
H       -1.00460000      -0.38360000      -0.10100000
H        1.75780000      -0.07320000      -1.35110000
H        0.78000000      -1.55490000      -1.37120000
H        0.44440000      -0.24450000      -3.26020000
H        1.75050000      -0.20950000       1.18610000
H        0.43290000       0.79430000       2.93260000
H       -1.04080000       0.03280000       2.33920000
H        1.03900000      -1.20110000       4.17400000
H       -0.69420000      -1.47460000       4.13760000
H        0.41070000      -3.52400000       2.88230000
H        0.96390000      -2.73780000       0.50050000
