19
Properties=species:S:1:pos:R:3 gdb_107733=T pbc="F F F"
O        0.56310000      -0.10470000      -0.75290000
C       -0.24050000       0.40160000       0.30490000
C       -1.59780000      -0.22270000       0.20610000
C       -2.71280000      -0.14770000       1.24940000
C       -3.36890000      -1.31340000       0.44970000
O       -4.15370000      -2.27410000       1.06780000
C       -3.76730000      -0.66090000      -0.90630000
C       -2.26280000      -0.53690000      -1.14480000
C       -1.94980000      -1.64350000      -0.16110000
H        1.42410000       0.31980000      -0.70500000
H        0.20220000       0.16590000       1.28720000
H       -0.32920000       1.49990000       0.24450000
H       -2.36550000      -0.49840000       2.22610000
H       -3.28000000       0.78550000       1.36110000
H       -4.99090000      -1.86730000       1.31880000
H       -4.21370000      -1.40160000      -1.57590000
H       -4.38570000       0.24520000      -0.87790000
H       -1.74100000      -0.33070000      -2.06850000
H       -1.36290000      -2.54560000      -0.24270000
