14
Properties=species:S:1:pos:R:3 gdb_704=T pbc="F F F"
C        0.28950000       1.44090000       0.22930000
N        1.15430000       0.33400000      -0.21960000
C       -0.27330000       0.08180000       0.01870000
C       -0.59270000      -0.83070000       1.16620000
C        0.04870000      -2.16630000       1.24570000
N        0.42830000      -1.09640000       2.18600000
H        0.48940000       1.78780000       1.23910000
H        0.03300000       2.22290000      -0.48000000
H        1.34730000       0.40940000      -1.21350000
H       -0.91450000      -0.04330000      -0.85290000
H       -1.59920000      -0.71220000       1.56410000
H       -0.48330000      -3.00460000       1.68660000
H        0.75430000      -2.42710000       0.46100000
H        1.30310000      -0.68990000       1.85240000
