18
Properties=species:S:1:pos:R:3 gdb_74676=T pbc="F F F"
C        0.09820000       1.46060000       0.04510000
C       -0.01340000      -0.03020000      -0.00440000
C       -0.08570000      -0.82370000      -1.08300000
C        0.00230000      -2.28310000      -0.65930000
C        1.49860000      -2.57090000      -0.70850000
C        2.03750000      -2.31510000       0.48930000
C        0.97310000      -2.00580000       1.45870000
C       -0.05110000      -0.87440000       1.20910000
N       -0.32720000      -2.26420000       0.81480000
H        1.06170000       1.77010000       0.46970000
H        0.01240000       1.90060000      -0.95170000
H       -0.68080000       1.90000000       0.68000000
H       -0.02610000      -0.50190000      -2.11670000
H       -0.63570000      -2.98040000      -1.20760000
H        2.03300000      -2.77290000      -1.62910000
H        3.09100000      -2.31960000       0.73830000
H        1.07540000      -2.33210000       2.49120000
H       -0.57330000      -0.50580000       2.09060000
