17
Properties=species:S:1:pos:R:3 gdb_25897=T pbc="F F F"
C       -0.04530000       1.50650000      -0.02650000
C        0.03830000      -0.01270000      -0.01830000
O        1.11280000      -0.58340000      -0.03400000
C       -1.22850000      -0.76360000       0.00870000
C       -2.49620000      -0.24880000       0.02800000
O       -3.41430000      -1.23060000       0.05000000
C       -2.72490000      -2.41520000       0.04460000
C       -1.38560000      -2.20590000       0.01970000
C       -0.30770000      -3.24280000       0.00660000
H        0.96430000       1.91790000      -0.04140000
H       -0.59590000       1.85890000      -0.90550000
H       -0.57540000       1.87080000       0.86010000
H       -2.88250000       0.75770000       0.02890000
H       -3.33290000      -3.30470000       0.06060000
H        0.32450000      -3.14360000      -0.88010000
H        0.35590000      -3.13300000       0.86880000
H       -0.73840000      -4.24810000       0.02040000
