20
Properties=species:S:1:pos:R:3 gdb_55919=T pbc="F F F"
C       -0.08420000       1.53730000      -0.01440000
C       -0.20970000       0.02470000       0.02600000
O       -0.52510000      -0.56410000       1.03550000
C        0.08030000      -0.71730000      -1.27420000
C        0.02420000      -2.23160000      -1.12080000
C       -1.32600000      -2.95170000      -0.85660000
N       -1.11280000      -3.90840000      -2.00460000
C       -1.07430000      -3.06160000      -3.20760000
C        0.13620000      -3.11520000      -2.36290000
H        0.94730000       1.82390000      -0.24970000
H       -0.71680000       1.95680000      -0.80440000
H       -0.36850000       1.95950000       0.95010000
H       -0.63670000      -0.36370000      -2.02820000
H        1.06440000      -0.39740000      -1.64570000
H        0.75070000      -2.53840000      -0.36500000
H       -1.36330000      -3.48680000       0.09200000
H       -2.23520000      -2.34900000      -0.95960000
H       -1.06110000      -3.63340000      -4.13070000
H       -1.69250000      -2.16610000      -3.24300000
H        1.04360000      -3.61060000      -2.69590000
