16
Properties=species:S:1:pos:R:3 gdb_29592=T pbc="F F F"
C       -0.24090000       1.47640000       0.08810000
C       -0.06900000      -0.00940000       0.02650000
C        0.01790000      -0.78990000      -1.08250000
O        0.16690000      -2.10270000      -0.75260000
C        0.17290000      -2.16510000       0.60020000
C        0.03510000      -0.92500000       1.13840000
C        0.01630000      -0.58630000       2.60430000
C       -1.25040000       0.01290000       3.04080000
N       -2.24620000       0.49520000       3.37380000
H        0.59690000       1.95900000       0.60550000
H       -0.29950000       1.90530000      -0.91570000
H       -1.15350000       1.75220000       0.62730000
H       -0.00990000      -0.57180000      -2.13760000
H        0.28230000      -3.14740000       1.03080000
H        0.19470000      -1.48630000       3.20210000
H        0.82060000       0.11710000       2.85540000
