17
Properties=species:S:1:pos:R:3 gdb_105164=T pbc="F F F"
O        0.09890000       1.38270000      -0.29950000
C        0.06270000       0.04080000       0.13950000
C       -1.34590000      -0.53070000       0.09960000
C       -1.89720000      -1.12570000      -1.18190000
C       -1.57500000      -2.05150000      -0.04260000
C       -0.45180000      -2.94040000      -0.09270000
C        0.47850000      -3.70160000      -0.12490000
C       -2.32980000       0.16830000       0.95980000
O       -2.08730000       1.17570000       1.58520000
H       -0.41240000       1.88390000       0.34820000
H        0.71540000      -0.53470000      -0.52150000
H        0.45700000      -0.06180000       1.16140000
H       -2.94360000      -0.96690000      -1.41970000
H       -1.22740000      -1.11550000      -2.03340000
H       -2.42970000      -2.43690000       0.50840000
H        1.30280000      -4.37080000      -0.15490000
H       -3.34380000      -0.29260000       0.99330000
