18
Properties=species:S:1:pos:R:3 gdb_8519=T pbc="F F F"
C        0.01750000       1.54860000       0.06690000
C        0.04540000       0.04330000       0.06540000
C       -1.25830000      -0.79530000       0.24480000
C       -0.35550000      -1.88580000       0.80860000
C        0.73740000      -0.88910000       1.15390000
C        0.96740000      -1.83870000       0.01740000
O        1.85820000      -2.89300000       0.02530000
C        0.83130000      -0.74240000      -1.03330000
H        1.02940000       1.96780000       0.04710000
H       -0.51650000       1.92810000      -0.81280000
H       -0.49000000       1.93650000       0.95700000
H       -1.90590000      -0.36760000       1.01720000
H       -1.85090000      -1.00290000      -0.65520000
H       -0.61980000      -2.77700000       1.36430000
H        1.28390000      -0.69690000       2.06560000
H        1.47410000      -3.61810000      -0.47990000
H        0.30890000      -0.95540000      -1.97480000
H        1.80060000      -0.27870000      -1.24040000
