20
Properties=species:S:1:pos:R:3 gdb_57368=T pbc="F F F"
C       -0.32800000       1.46350000      -0.08740000
C        0.03810000      -0.02120000       0.03980000
C        0.94100000      -0.27580000       1.25300000
O       -1.15770000      -0.80360000       0.15040000
C        0.72300000      -0.51380000      -1.25380000
C        0.58760000      -1.95000000      -1.64330000
N       -0.13220000      -0.91390000      -2.39570000
C        1.93330000       0.18970000      -1.60580000
C        2.95360000       0.76650000      -1.87520000
H        0.56460000       2.07710000      -0.22910000
H       -0.99440000       1.62060000      -0.94010000
H       -0.83650000       1.80880000       0.82050000
H        0.46210000       0.08890000       2.16880000
H        1.12890000      -1.34690000       1.36450000
H        1.89960000       0.23790000       1.14360000
H       -1.68070000      -0.44030000       0.87130000
H        1.40350000      -2.42390000      -2.18000000
H        0.02030000      -2.59040000      -0.97640000
H       -1.09380000      -0.89800000      -2.05820000
H        3.85050000       1.27500000      -2.12970000
