19
Properties=species:S:1:pos:R:3 gdb_104970=T pbc="F F F"
C       -1.18670000       0.15350000       0.10300000
C        0.33300000      -0.02580000       0.00040000
C        0.78800000      -0.66840000      -1.30380000
C        2.02850000      -1.57850000      -1.26340000
C        0.67930000      -2.18520000      -1.42070000
C        0.66520000       0.04580000      -2.60690000
O        0.79960000      -0.50280000      -3.68500000
C        0.44180000       1.56790000      -2.70050000
O        0.44330000       2.35520000      -1.79230000
H       -1.56140000       0.84990000      -0.65260000
H       -1.70850000      -0.80050000      -0.02750000
H       -1.46200000       0.55680000       1.08210000
H        0.82750000       0.93800000       0.13830000
H        0.67050000      -0.67420000       0.81790000
H        2.67560000      -1.55540000      -2.13230000
H        2.53420000      -1.64890000      -0.30680000
H        0.23680000      -2.69510000      -0.57210000
H        0.41620000      -2.57500000      -2.39650000
H        0.31670000       1.86680000      -3.76320000
