23
Properties=species:S:1:pos:R:3 gdb_108370=T pbc="F F F"
C        0.03510000       1.51280000      -0.19310000
C        0.00310000       0.00240000       0.08320000
C       -1.39560000      -0.55490000       0.08460000
C       -2.42030000      -0.28900000       1.20290000
C       -2.91680000      -1.76800000       1.10110000
C       -1.91220000      -2.01090000      -0.02670000
C       -2.09100000      -1.03090000      -1.16570000
C       -3.42520000      -0.53380000      -1.67870000
O       -1.15610000      -1.22380000      -2.20700000
H        1.05880000       1.89850000      -0.15490000
H       -0.37160000       1.73410000      -1.18500000
H       -0.55660000       2.06790000       0.54330000
H        0.59520000      -0.52070000      -0.67210000
H        0.47100000      -0.20180000       1.05590000
H       -1.93030000      -0.08770000       2.15920000
H       -3.15670000       0.50130000       1.02620000
H       -2.68450000      -2.33910000       2.00280000
H       -3.97340000      -1.92640000       0.86070000
H       -1.33980000      -2.91830000      -0.18930000
H       -4.14330000      -0.34600000      -0.87810000
H       -3.28900000       0.39470000      -2.24240000
H       -3.87440000      -1.27300000      -2.35450000
H       -1.45390000      -1.97660000      -2.72920000
