16
Properties=species:S:1:pos:R:3 gdb_43027=T pbc="F F F"
O       -0.06870000       0.00780000      -0.11900000
C       -0.07150000       1.20160000      -0.02220000
C       -1.28200000       2.17790000       0.03480000
C       -0.88990000       3.36070000       1.00330000
C        0.19540000       3.49660000      -0.07890000
C        1.44170000       4.14310000      -0.68390000
O        1.94730000       2.79580000      -0.97690000
C        1.07090000       2.25240000       0.05860000
N       -0.84620000       3.08890000      -1.07060000
H       -2.27910000       1.74270000       0.00550000
H       -1.66280000       4.13040000       0.98680000
H       -0.56670000       3.12560000       2.01810000
H        1.30340000       4.73960000      -1.58990000
H        2.09360000       4.66430000       0.02710000
H        1.63920000       2.11530000       0.98890000
H       -0.46360000       2.60210000      -1.88550000
