19
Properties=species:S:1:pos:R:3 gdb_74022=T pbc="F F F"
C       -0.07780000       1.47720000       0.00180000
C       -0.06760000      -0.01130000       0.12870000
C       -1.06720000      -0.90000000       0.18430000
C       -2.45650000      -1.18740000      -0.32660000
C       -1.81710000      -2.51380000      -0.89710000
C       -0.64390000      -2.34090000       0.13420000
C        0.85990000      -2.28660000      -0.14130000
C        1.21170000      -0.78820000       0.08350000
O        2.32780000      -0.32380000       0.11060000
H        0.53340000       1.80090000      -0.84750000
H       -1.09150000       1.86750000      -0.11990000
H        0.36300000       1.94140000       0.89160000
H       -3.17620000      -1.40830000       0.46840000
H       -2.90270000      -0.47540000      -1.02430000
H       -2.41700000      -3.42380000      -0.82770000
H       -1.47740000      -2.37350000      -1.92610000
H       -0.88300000      -2.89040000       1.05150000
H        1.47730000      -2.93390000       0.48600000
H        1.09510000      -2.52520000      -1.18520000
