16
Properties=species:S:1:pos:R:3 gdb_46097=T pbc="F F F"
O       -0.18750000      -0.05050000       0.32720000
C       -0.06220000       1.13430000       0.13030000
C       -1.19450000       2.12770000      -0.18120000
C       -0.50750000       3.49790000      -0.32900000
C        0.96100000       3.20500000      -0.10700000
C        1.99560000       4.30220000      -0.14140000
C        1.94380000       5.08730000      -1.37790000
N        1.88770000       5.69970000      -2.35570000
C        1.20040000       1.91150000       0.14080000
H       -1.71220000       1.80990000      -1.09050000
H       -1.93040000       2.10180000       0.62710000
H       -0.66390000       3.95080000      -1.31460000
H       -0.86770000       4.23300000       0.40180000
H        1.83060000       4.99140000       0.69870000
H        3.00220000       3.88990000      -0.02300000
H        2.16360000       1.45320000       0.32780000
