19
Properties=species:S:1:pos:R:3 gdb_112607=T pbc="F F F"
C        0.13900000       1.22630000       0.30940000
O       -0.28860000      -0.02550000      -0.18170000
C        0.48300000      -0.49620000      -1.25050000
C        1.88740000      -1.09100000      -0.94360000
C        1.53190000      -2.31760000      -1.85400000
O        1.84000000      -3.57960000      -1.35690000
C        0.03240000      -1.87220000      -1.77090000
C        2.08900000      -2.15550000      -3.24520000
O        2.71290000      -3.03240000      -3.79400000
H        1.16310000       1.18420000       0.70920000
H        0.10500000       2.00170000      -0.47210000
H       -0.54160000       1.50750000       1.11610000
H        0.53120000       0.26170000      -2.04850000
H        2.77910000      -0.50690000      -1.18370000
H        1.94020000      -1.44240000       0.08950000
H        2.35010000      -4.02400000      -2.05330000
H       -0.44760000      -2.43840000      -0.97000000
H       -0.58170000      -1.91660000      -2.67310000
H        1.89600000      -1.18200000      -3.74220000
