15
Properties=species:S:1:pos:R:3 gdb_35637=T pbc="F F F"
N        0.08470000      -1.15050000       0.05870000
C        0.03540000       0.00180000       0.00650000
C        0.01340000       1.46980000      -0.10460000
O       -0.86230000       1.95170000       0.92700000
C       -0.66140000       3.21930000       1.39290000
N        0.36820000       3.94280000       1.30160000
C        1.51850000       3.39630000       0.65100000
C        2.16210000       2.15580000       1.23940000
C        1.40850000       2.06770000      -0.05740000
H       -0.44250000       1.72360000      -1.07130000
H       -1.55200000       3.55840000       1.91550000
H        2.17500000       4.15120000       0.23360000
H        3.24170000       2.06810000       1.20180000
H        1.70340000       1.74470000       2.13230000
H        1.97230000       1.91340000      -0.97140000
