23
Properties=species:S:1:pos:R:3 gdb_103651=T pbc="F F F"
C        0.22950000       1.28430000      -0.34840000
C        0.20690000      -0.18840000       0.07360000
C        0.70520000      -0.50090000       1.51190000
C       -0.23700000       0.12270000       2.55760000
C        0.84500000      -2.04080000       1.71630000
C        2.35370000      -2.38220000       1.59650000
O        2.72970000      -2.98240000       0.35370000
C        3.01480000      -1.03880000       1.79490000
C        2.13870000      -0.03810000       1.71550000
H        1.24230000       1.69840000      -0.31430000
H       -0.13450000       1.39340000      -1.37490000
H       -0.40700000       1.90480000       0.28980000
H       -0.81570000      -0.57720000      -0.02090000
H        0.81540000      -0.76850000      -0.63180000
H       -1.25700000      -0.26030000       2.44050000
H        0.09850000      -0.11500000       3.57200000
H       -0.27780000       1.21310000       2.47120000
H        0.49310000      -2.31020000       2.71740000
H        0.26230000      -2.62350000       0.99770000
H        2.65410000      -3.12100000       2.34650000
H        2.71460000      -2.28880000      -0.31460000
H        4.08810000      -0.93650000       1.91410000
H        2.39330000       1.01520000       1.78290000
