22
Properties=species:S:1:pos:R:3 gdb_110108=T pbc="F F F"
C       -0.69310000       1.48420000       0.52210000
C        0.43740000       0.59310000      -0.00700000
C        1.00340000      -0.29140000       1.08570000
C        0.48320000      -1.68610000       1.33860000
C       -0.53170000      -2.24910000       0.49150000
C       -1.38270000      -2.75230000      -0.19600000
N        1.85710000      -1.44470000       0.84910000
C        2.21750000      -1.84400000      -0.51140000
C        2.78610000      -3.26080000      -0.50300000
H       -0.35220000       2.10460000       1.35820000
H       -1.06400000       2.15340000      -0.25980000
H       -1.53350000       0.87840000       0.87500000
H        0.06420000      -0.01280000      -0.83630000
H        1.24560000       1.21900000      -0.40700000
H        1.29470000       0.26540000       1.97830000
H        0.44720000      -2.04330000       2.36600000
H       -2.13720000      -3.19360000      -0.79890000
H        1.37670000      -1.79290000      -1.21700000
H        2.97790000      -1.13430000      -0.85820000
H        3.63390000      -3.33210000       0.18410000
H        2.02510000      -3.97900000      -0.18260000
H        3.12070000      -3.54670000      -1.50510000
