16
Properties=species:S:1:pos:R:3 gdb_28483=T pbc="F F F"
C        0.06300000       1.46980000      -0.01880000
C        0.06180000      -0.03690000       0.01720000
N        0.05130000      -0.68370000      -1.15900000
C        0.04990000      -2.00820000      -1.16860000
O        0.03930000      -2.62610000      -2.37470000
C        0.05870000      -2.78770000      -0.00870000
C        0.06950000      -2.12680000       1.20610000
C        0.07110000      -0.73150000       1.22960000
O        0.08190000      -0.11020000       2.44820000
H        0.95370000       1.89130000       0.46640000
H        0.05340000       1.80650000      -1.05600000
H       -0.81730000       1.89320000       0.48340000
H        0.03450000      -1.91820000      -3.03270000
H        0.05700000      -3.86820000      -0.07710000
H        0.07670000      -2.66840000       2.14560000
H        0.08260000       0.84290000       2.31850000
