18
Properties=species:S:1:pos:R:3 gdb_13119=T pbc="F F F"
C       -0.89460000       0.68570000      -0.13880000
O        0.03250000       0.49900000      -1.18370000
C        1.22620000      -0.14930000      -0.79450000
C        1.06520000      -1.65630000      -0.59050000
C        0.73200000      -2.54880000      -1.82650000
C        1.94730000      -3.47420000      -1.51080000
C        2.37190000      -2.46030000      -0.43630000
O        3.36560000      -2.29370000       0.21010000
H       -1.29640000      -0.26320000       0.24700000
H       -0.45000000       1.23860000       0.70340000
H       -1.72330000       1.26980000      -0.54640000
H        1.93900000       0.03500000      -1.60580000
H        1.64060000       0.30160000       0.12080000
H        0.40020000      -1.85960000       0.25740000
H       -0.24610000      -3.03010000      -1.81260000
H        0.83970000      -2.00680000      -2.76860000
H        1.67490000      -4.44110000      -1.07500000
H        2.67690000      -3.65190000      -2.30540000
