21
Properties=species:S:1:pos:R:3 gdb_121758=T pbc="F F F"
C        0.05360000       1.41500000       0.00780000
C       -0.02370000      -0.10160000       0.00120000
O       -1.38760000      -0.47860000       0.01170000
C       -1.57190000      -1.86070000       0.00690000
C       -3.06010000      -2.17420000       0.01930000
O       -3.95520000      -1.37480000       0.03310000
O       -3.22610000      -3.51270000       0.01290000
C       -4.59210000      -3.97430000       0.02400000
C       -4.56580000      -5.49030000       0.01550000
H        1.09740000       1.74270000       0.00000000
H       -0.44880000       1.82730000      -0.87150000
H       -0.43280000       1.81870000       0.90000000
H        0.47690000      -0.51340000      -0.89190000
H        0.49290000      -0.52200000       0.88100000
H       -1.12610000      -2.33840000      -0.88250000
H       -1.10980000      -2.34660000       0.88360000
H       -5.09230000      -3.57720000       0.91300000
H       -5.10980000      -3.56760000      -0.85050000
H       -5.58840000      -5.87920000       0.02350000
H       -4.06080000      -5.86770000      -0.87820000
H       -4.04320000      -5.87740000       0.89480000
