19
Properties=species:S:1:pos:R:3 gdb_88296=T pbc="F F F"
O       -0.00110000       1.34620000      -0.23470000
C       -0.03240000      -0.02170000      -0.08400000
C       -0.35310000      -0.67940000       1.20380000
C       -1.38540000      -0.77450000       0.07000000
C       -2.58790000       0.07470000       0.15550000
O       -2.54590000       1.18810000       0.68000000
C       -3.84560000      -0.43510000      -0.44990000
C       -5.15930000       0.03320000       0.16190000
C       -4.74090000       0.57810000      -1.15720000
H       -0.78820000       1.69680000       0.22080000
H        0.68280000      -0.50270000      -0.74370000
H        0.15160000      -1.59950000       1.47720000
H       -0.63560000      -0.03430000       2.02920000
H       -1.49090000      -1.72740000      -0.43500000
H       -3.81350000      -1.43830000      -0.85800000
H       -5.96570000      -0.68970000       0.20270000
H       -5.06390000       0.68330000       1.02360000
H       -4.36460000       1.59390000      -1.18300000
H       -5.24790000       0.24070000      -2.05370000
