20
Properties=species:S:1:pos:R:3 gdb_18124=T pbc="F F F"
C        0.00870000       1.48890000       0.10480000
C        1.46700000       1.96840000       0.00980000
C        2.13900000       0.95770000      -0.94520000
C        3.57440000       0.53760000      -0.58000000
C        3.33360000      -0.68730000       0.31050000
O        2.22310000      -1.35500000      -0.27200000
C        1.32580000      -0.36980000      -0.78540000
C        0.15110000      -0.04070000       0.16730000
H       -0.53010000       1.90760000       0.95980000
H       -0.54060000       1.78180000      -0.79900000
H        1.56500000       3.00220000      -0.33350000
H        1.93370000       1.91380000       1.00210000
H        2.08100000       1.32550000      -1.97280000
H        4.13050000       0.24060000      -1.47460000
H        4.13740000       1.32850000      -0.07600000
H        4.17090000      -1.39010000       0.34000000
H        3.11310000      -0.37970000       1.34670000
H        0.96000000      -0.75400000      -1.74280000
H        0.43350000      -0.35380000       1.17920000
H       -0.76550000      -0.57650000      -0.09310000
