19
Properties=species:S:1:pos:R:3 gdb_63423=T pbc="F F F"
C       -0.04960000       1.60870000      -0.03050000
C        0.02480000       0.08730000       0.02260000
O       -1.33500000      -0.35700000       0.11650000
C        0.75650000      -0.53910000      -1.19440000
C        1.45400000      -1.82160000      -0.64880000
C        1.58100000      -1.50300000       0.83830000
C        0.82670000      -0.46530000       1.18930000
C        0.67130000      -3.04080000      -0.85470000
C        0.00150000      -4.02960000      -1.00110000
H        0.95120000       2.04850000      -0.05410000
H       -0.59680000       1.92890000      -0.92230000
H       -0.58090000       1.98970000       0.84640000
H       -1.32140000      -1.31960000       0.17700000
H        0.06380000      -0.74050000      -2.01300000
H        1.52800000       0.14790000      -1.55450000
H        2.43680000      -1.95710000      -1.11630000
H        2.18030000      -2.11660000       1.50090000
H        0.70840000      -0.07950000       2.19590000
H       -0.57780000      -4.90870000      -1.14070000
