19
Properties=species:S:1:pos:R:3 gdb_32805=T pbc="F F F"
C       -0.06050000       1.53650000       0.05020000
C        0.01970000       0.02090000       0.02650000
O       -1.30850000      -0.48610000       0.02580000
C       -1.44390000      -1.83780000       0.00490000
C       -2.65410000      -2.47190000      -0.00050000
C       -4.05080000      -1.97330000       0.01260000
O       -2.44330000      -3.82550000      -0.02250000
C       -1.10580000      -4.03490000      -0.03090000
C       -0.43020000      -2.85570000      -0.01500000
H        0.94500000       1.96740000       0.05120000
H       -0.59680000       1.90680000      -0.82790000
H       -0.58710000       1.87970000       0.94500000
H        0.55390000      -0.32810000      -0.86930000
H        0.56320000      -0.35530000       0.90560000
H       -4.60980000      -2.29330000      -0.87500000
H       -4.60390000      -2.32360000       0.89250000
H       -4.03600000      -0.88120000       0.03120000
H       -0.78930000      -5.06470000      -0.04820000
H        0.63980000      -2.72920000      -0.01710000
