19
Properties=species:S:1:pos:R:3 gdb_64063=T pbc="F F F"
C       -0.18330000       1.60870000      -0.00490000
C        0.05330000       0.09780000      -0.02960000
C       -1.28540000      -0.67040000       0.03090000
C        0.90580000      -0.38170000      -1.22790000
N        1.71970000      -1.46060000      -0.67010000
C        1.89600000      -1.39140000       0.69350000
N        2.67640000      -2.01820000       1.48190000
C        0.88800000      -0.35680000       1.17910000
O        0.76260000       0.03130000       2.30820000
H        0.75880000       2.16280000      -0.06370000
H       -0.81520000       1.91910000      -0.84360000
H       -0.67870000       1.89120000       0.92760000
H       -1.92480000      -0.37900000      -0.80890000
H       -1.12770000      -1.75230000      -0.01820000
H       -1.81090000      -0.44350000       0.96250000
H        0.28850000      -0.75180000      -2.05290000
H        1.52840000       0.43760000      -1.61480000
H        2.39220000      -1.94170000      -1.24650000
H        3.28730000      -2.66270000       0.97380000
