16
Properties=species:S:1:pos:R:3 gdb_105866=T pbc="F F F"
O        0.68330000       0.36400000       0.91570000
C       -0.03970000       0.30590000      -0.30320000
C       -1.39300000      -0.34880000      -0.16180000
C       -2.08910000      -0.66440000       1.18350000
O       -3.34160000      -0.22200000       1.56680000
C       -1.86700000      -1.75860000       0.21270000
O       -2.92310000      -1.69250000      -0.79050000
C       -2.42230000      -0.45810000      -1.23310000
N       -2.73630000       0.22990000      -2.23030000
H        0.30610000       1.07110000       1.44880000
H       -0.18220000       1.30250000      -0.74360000
H        0.58480000      -0.26470000      -0.99900000
H       -1.37820000      -0.62960000       2.00390000
H       -3.97930000      -0.58210000       0.93670000
H       -1.35260000      -2.70450000       0.32320000
H       -3.49070000      -0.20190000      -2.76600000
