17
Properties=species:S:1:pos:R:3 gdb_57827=T pbc="F F F"
C        0.02260000       1.27570000      -0.43750000
C       -0.00960000      -0.18840000       0.04870000
C        0.76200000      -0.38530000       1.35440000
C       -1.45280000      -0.65550000       0.19300000
O       -1.96630000      -0.96850000       1.24430000
C       -2.22730000      -0.71550000      -1.04240000
C       -2.87750000      -0.79970000      -2.06020000
C       -3.67280000      -0.86960000      -3.26320000
O       -3.65730000      -1.80270000      -4.02980000
H        1.05660000       1.58830000      -0.60720000
H       -0.52820000       1.40480000      -1.37330000
H       -0.41440000       1.94250000       0.31310000
H        0.43360000      -0.80930000      -0.74300000
H        0.32840000       0.21800000       2.15670000
H        0.73740000      -1.42870000       1.67780000
H        1.80580000      -0.08650000       1.22190000
H       -4.31170000       0.02020000      -3.43170000
