19
Properties=species:S:1:pos:R:3 gdb_5821=T pbc="F F F"
C       -0.00730000       1.58620000      -0.09540000
C        0.02770000       0.04720000      -0.00420000
C        0.63910000      -0.48950000      -1.22540000
N        1.10490000      -0.89500000      -2.20230000
C        0.75850000      -0.50320000       1.27310000
C        0.02120000      -0.05550000       2.54320000
C        0.84310000      -2.03060000       1.22180000
O        2.10720000      -0.04660000       1.29350000
H        1.00640000       1.99630000      -0.09850000
H       -0.49240000       1.90160000      -1.02180000
H       -0.56450000       2.01590000       0.73990000
H       -1.00430000      -0.32510000       0.02420000
H       -1.01770000      -0.40000000       2.54830000
H        0.52530000      -0.47350000       3.41850000
H        0.01310000       1.03410000       2.64990000
H        1.42680000      -2.35370000       0.35740000
H        1.33360000      -2.40050000       2.12560000
H       -0.15390000      -2.47680000       1.15800000
H        2.11550000       0.87820000       1.56000000
