20
Properties=species:S:1:pos:R:3 gdb_91817=T pbc="F F F"
C        0.11180000       1.48720000      -0.01810000
C       -0.07830000      -0.01920000       0.00440000
C       -0.86910000      -0.64130000       1.10870000
N        0.59610000      -0.71570000       1.10990000
C        1.19090000      -2.03040000       0.81780000
C        1.84690000      -2.08060000      -0.56550000
O        2.23550000      -3.43530000      -0.76600000
C        0.86640000      -1.60370000      -1.61290000
C       -0.04520000      -0.67480000      -1.33340000
H        1.06240000       1.75270000      -0.49260000
H       -0.69360000       1.97210000      -0.58150000
H        0.11410000       1.88540000       0.99950000
H       -1.31250000      -0.01860000       1.88300000
H       -1.41830000      -1.55360000       0.88360000
H        1.93650000      -2.25230000       1.58820000
H        0.44520000      -2.83550000       0.84090000
H        2.73630000      -1.42820000      -0.56820000
H        2.77280000      -3.47840000      -1.56300000
H        0.92570000      -2.06310000      -2.59680000
H       -0.74950000      -0.32630000      -2.08540000
