16
Properties=species:S:1:pos:R:3 gdb_43990=T pbc="F F F"
O       -0.06490000       0.02450000       0.06460000
C       -0.02920000       1.21990000       0.02020000
N       -1.04260000       2.19390000       0.04430000
C       -0.08370000       3.29910000      -0.01420000
C        0.93380000       3.25590000       1.07990000
C        1.06350000       2.28930000      -0.09290000
C        1.90080000       2.70190000      -1.28180000
O        1.49230000       4.05230000      -1.56060000
C        0.10940000       4.20170000      -1.21090000
H       -1.86910000       2.16100000       0.62960000
H        1.66930000       4.05450000       1.09860000
H        0.64780000       2.86940000       2.05180000
H        2.97970000       2.73160000      -1.10890000
H        1.69900000       2.03540000      -2.13270000
H       -0.55940000       3.86610000      -2.01750000
H       -0.05080000       5.26850000      -1.03290000
