17
Properties=species:S:1:pos:R:3 gdb_115200=T pbc="F F F"
O       -0.14850000       1.47740000      -0.07600000
C       -0.00140000       0.06820000      -0.11400000
C       -1.39340000      -0.54240000       0.06630000
C       -1.34480000      -2.06340000      -0.05860000
O       -2.59400000      -2.68760000       0.25800000
C       -3.22900000      -2.32140000       1.40790000
O       -4.13290000      -2.99700000       1.82530000
C       -2.79710000      -1.05020000       2.03220000
C       -1.99560000      -0.19110000       1.39890000
H        0.72550000       1.87710000      -0.10450000
H        0.42320000      -0.26560000      -1.07400000
H        0.66580000      -0.28830000       0.68670000
H       -2.02890000      -0.12600000      -0.72900000
H       -1.11450000      -2.37960000      -1.07870000
H       -0.56880000      -2.46460000       0.60890000
H       -3.25760000      -0.83350000       2.98870000
H       -1.76300000       0.78490000       1.81350000
