18
Properties=species:S:1:pos:R:3 gdb_73066=T pbc="F F F"
O       -0.19530000       1.28410000       0.48380000
C       -0.16730000      -0.06300000       0.19980000
C        0.83620000      -0.72140000      -0.75020000
C       -0.28880000      -1.68940000      -1.23690000
C       -1.28410000      -1.00050000      -0.29710000
C       -0.79310000      -1.05230000       1.13000000
N       -0.05060000      -2.14040000       1.69630000
C        1.01510000      -1.89720000       2.50740000
O        1.46810000      -0.79400000       2.73870000
H        0.31360000       1.40050000       1.29750000
H        1.14260000      -0.02660000      -1.53450000
H        1.72600000      -1.16180000      -0.29210000
H       -0.53900000      -1.54930000      -2.29000000
H       -0.11940000      -2.75510000      -1.05700000
H       -2.32950000      -0.80760000      -0.50720000
H       -1.47320000      -0.56090000       1.82460000
H       -0.41350000      -3.08010000       1.64550000
H        1.44180000      -2.82670000       2.93290000
