16
Properties=species:S:1:pos:R:3 gdb_126791=T pbc="F F F"
C       -0.00750000       1.57780000      -0.00610000
C        0.00630000       0.05050000      -0.00750000
N        0.67950000      -0.49730000      -1.18940000
N       -0.06760000      -0.68810000      -2.27470000
C        0.52910000      -1.10940000      -3.35420000
C        1.96330000      -1.37300000      -3.44570000
O        2.53540000      -1.77280000      -4.45090000
C        2.62030000      -1.09180000      -2.17110000
N        1.99700000      -0.67070000      -1.10670000
H        1.01190000       1.97360000      -0.00840000
H       -0.53560000       1.96050000      -0.88380000
H       -0.51740000       1.94350000       0.88990000
H        0.53990000      -0.33980000       0.86070000
H       -1.00770000      -0.35290000      -0.01480000
H       -0.10150000      -1.26640000      -4.22430000
H        3.69270000      -1.23440000      -2.07780000
