16
Properties=species:S:1:pos:R:3 gdb_49080=T pbc="F F F"
O       -0.03420000      -0.01980000       0.13130000
C        0.02850000       1.17380000      -0.05100000
C        1.31220000       1.92880000      -0.04190000
C        2.62540000       1.20180000       0.20240000
O        3.57320000       2.29000000       0.12580000
C        2.74870000       3.39300000      -0.12900000
C        1.59750000       3.03930000      -1.12270000
N        0.62800000       3.95620000      -0.42780000
C        1.41810000       3.32280000       0.68490000
H       -0.87380000       1.78890000      -0.23570000
H        2.67620000       0.72630000       1.18700000
H        2.84980000       0.45190000      -0.56260000
H        3.31520000       4.32060000      -0.21830000
H        1.61970000       2.90880000      -2.20510000
H        0.92650000       4.92860000      -0.55070000
H        1.22820000       3.52750000       1.73900000
