20
Properties=species:S:1:pos:R:3 gdb_12645=T pbc="F F F"
C       -0.11320000       1.58220000      -0.03120000
C        0.07460000       0.06340000      -0.00600000
C        0.86720000      -0.50830000      -1.21840000
O        1.88400000       0.37990000      -1.66600000
C        1.47500000      -1.82340000      -0.67790000
C        1.60490000      -1.53650000       0.79970000
C        0.84520000      -0.50500000       1.18260000
C        0.67470000       0.01670000       2.57520000
H        0.84630000       2.10590000      -0.03160000
H       -0.65160000       1.88950000      -0.93300000
H       -0.68990000       1.92230000       0.83480000
H       -0.92580000      -0.39960000      -0.01040000
H        0.22600000      -0.66130000      -2.09060000
H        2.51190000       0.47970000      -0.94070000
H        0.80630000      -2.67800000      -0.85690000
H        2.42010000      -2.04940000      -1.18330000
H        2.20990000      -2.13930000       1.46950000
H        1.28530000      -0.54200000       3.28980000
H        0.94970000       1.07590000       2.64760000
H       -0.37260000      -0.05240000       2.89800000
