20
Properties=species:S:1:pos:R:3 gdb_89855=T pbc="F F F"
O        0.08990000       1.43030000       0.12150000
C        0.07340000       0.00820000       0.01660000
C       -1.35710000      -0.55380000       0.08680000
C       -1.37700000      -2.02840000      -0.26530000
C       -1.18680000      -3.02350000       0.82310000
N       -2.49910000      -2.87470000       0.16130000
C       -0.85330000      -2.31100000      -1.66380000
C        0.36180000      -1.47930000      -1.98340000
C        0.78000000      -0.46170000      -1.23090000
H       -0.30650000       1.78100000      -0.68420000
H        0.63310000      -0.32660000       0.90020000
H       -1.77750000      -0.37740000       1.08290000
H       -1.97900000       0.00050000      -0.63110000
H       -0.67850000      -3.96290000       0.62280000
H       -1.07220000      -2.65740000       1.84070000
H       -3.12810000      -2.34600000       0.76200000
H       -0.62600000      -3.37770000      -1.77370000
H       -1.64730000      -2.10580000      -2.39750000
H        0.91430000      -1.74770000      -2.88100000
H        1.67360000       0.09810000      -1.49630000
