19
Properties=species:S:1:pos:R:3 gdb_9482=T pbc="F F F"
C       -0.66640000       1.23870000      -0.02370000
C        0.14190000      -0.04560000      -0.10220000
C        1.54520000      -0.04310000      -0.76500000
C        2.02640000      -1.05420000       0.30580000
C        0.80460000      -0.64850000       1.20130000
C        1.17630000       0.38470000       2.27420000
C        0.06740000      -1.75470000       1.80150000
N       -0.52460000      -2.63630000       2.26060000
H       -0.09190000       2.05890000       0.41780000
H       -0.97100000       1.55330000      -1.02770000
H       -1.57660000       1.10320000       0.57040000
H       -0.46720000      -0.83220000      -0.55820000
H        1.60110000      -0.35570000      -1.80940000
H        2.04020000       0.92790000      -0.66960000
H        1.95070000      -2.08830000      -0.03550000
H        3.01070000      -0.89950000       0.75310000
H        1.75510000       1.20200000       1.83540000
H        0.28560000       0.80770000       2.74630000
H        1.78570000      -0.08190000       3.05340000
