20
Properties=species:S:1:pos:R:3 gdb_19425=T pbc="F F F"
C       -0.04640000       1.50180000       0.01100000
C        1.27910000       0.77550000      -0.05340000
C       -0.01340000      -0.00220000       0.00370000
C       -0.38100000      -0.82190000       1.24320000
C       -0.31020000      -2.29600000       0.77480000
C       -0.62880000      -2.24860000      -0.71490000
C       -1.81900000      -1.43210000      -1.15650000
C       -0.43560000      -0.82260000      -1.18810000
H       -0.30750000       2.00480000       0.93700000
H       -0.39210000       2.01210000      -0.88220000
H        1.82700000       0.79650000      -0.99050000
H        1.91090000       0.78520000       0.82930000
H        0.27830000      -0.61800000       2.09150000
H       -1.39790000      -0.57590000       1.56980000
H        0.70490000      -2.68780000       0.90960000
H       -0.98560000      -2.94440000       1.34350000
H       -0.32870000      -3.08790000      -1.33270000
H       -2.26440000      -1.68970000      -2.11140000
H       -2.53520000      -1.08460000      -0.41860000
H        0.01030000      -0.59800000      -2.15140000
