23
Properties=species:S:1:pos:R:3 gdb_121267=T pbc="F F F"
C        0.00240000       1.38500000      -0.02260000
O        0.04870000      -0.01990000      -0.02100000
C        0.65160000      -0.55050000       1.14210000
C        0.66190000      -2.06910000       1.03940000
C        1.47670000      -2.61140000      -0.16050000
C        1.91440000      -4.03500000       0.25320000
C        2.02940000      -3.98160000       1.77110000
C        2.76940000      -2.81380000       2.37450000
C        1.26150000      -2.77070000       2.25430000
H        1.01010000       1.82920000       0.02090000
H       -0.48050000       1.69840000      -0.95170000
H       -0.57810000       1.77700000       0.82840000
H        1.68280000      -0.17010000       1.24760000
H        0.09610000      -0.22770000       2.04020000
H       -0.38100000      -2.39870000       0.93930000
H        0.90250000      -2.59550000      -1.08850000
H        2.35310000      -1.97560000      -0.32820000
H        1.14380000      -4.76580000      -0.02140000
H        2.84080000      -4.34530000      -0.24280000
H        2.00540000      -4.91290000       2.32660000
H        3.17850000      -2.94820000       3.36990000
H        3.37750000      -2.18240000       1.73480000
H        0.67700000      -2.80630000       3.16760000
