23
Properties=species:S:1:pos:R:3 gdb_109703=T pbc="F F F"
C       -0.50640000       1.57100000       0.32440000
C        0.19490000       0.26060000      -0.05270000
C        0.86630000      -0.40400000       1.13300000
C        0.08190000      -1.29230000       2.06430000
O       -1.27580000      -1.46440000       1.76900000
C        1.12660000      -1.88950000       1.15480000
C        0.83160000      -2.93410000       0.07030000
C        1.90660000      -3.85150000       0.72810000
C        2.37920000      -2.65260000       1.60420000
H        0.19760000       2.28700000       0.76340000
H       -0.95880000       2.04450000      -0.55290000
H       -1.29760000       1.38570000       1.05690000
H       -0.53580000      -0.42830000      -0.48620000
H        0.94700000       0.45180000      -0.82930000
H        1.62440000       0.20830000       1.62020000
H        0.31190000      -1.24130000       3.13030000
H       -1.51620000      -2.37320000       1.97850000
H       -0.19180000      -3.31900000       0.03130000
H        1.10720000      -2.60420000      -0.93630000
H        1.46440000      -4.65590000       1.32150000
H        2.65020000      -4.28820000       0.05810000
H        3.30770000      -2.20110000       1.23900000
H        2.48680000      -2.83640000       2.67790000
