17
Properties=species:S:1:pos:R:3 gdb_114031=T pbc="F F F"
O       -0.26420000       1.02610000      -1.05840000
C       -0.03730000       0.12350000       0.00800000
C       -1.28340000      -0.67530000       0.30660000
O       -1.58270000      -1.74450000      -0.60810000
C       -1.32190000      -2.07490000       0.76050000
C       -0.10600000      -2.92430000       1.03000000
O       -0.41360000      -4.30860000       0.81910000
C       -0.27070000      -4.78330000      -0.43960000
O       -0.54330000      -5.90700000      -0.73130000
H       -0.52220000       0.50290000      -1.82580000
H        0.81040000      -0.54300000      -0.20250000
H        0.22470000       0.73660000       0.87730000
H       -2.14920000      -0.05530000       0.54490000
H       -2.20540000      -2.39910000       1.31220000
H        0.73630000      -2.62290000       0.40040000
H        0.19410000      -2.84660000       2.07840000
H        0.12670000      -4.02720000      -1.14180000
