19
Properties=species:S:1:pos:R:3 gdb_30114=T pbc="F F F"
C       -0.42570000       1.40850000      -0.04780000
N       -0.10920000      -0.00990000       0.04860000
C        1.24240000      -0.40380000      -0.31430000
C        0.82410000      -0.44080000       1.11860000
C        1.37390000       0.47970000       2.13570000
C        0.92790000       0.73240000       3.41870000
C        1.79500000       1.69230000       4.00490000
C        2.75380000       2.00220000       3.06820000
N        2.48740000       1.26850000       1.94100000
H        0.42040000       2.07760000       0.17320000
H       -0.77710000       1.61850000      -1.06300000
H       -1.23310000       1.64460000       0.65170000
H        1.34590000      -1.32690000      -0.87940000
H        1.92920000       0.38360000      -0.62820000
H        0.53660000      -1.40770000       1.52530000
H        0.06400000       0.27500000       3.87710000
H        1.72400000       2.10800000       4.99820000
H        3.59710000       2.67280000       3.10780000
H        3.06240000       1.24570000       1.11750000
