16
Properties=species:S:1:pos:R:3 gdb_5607=T pbc="F F F"
C       -0.02560000       1.43530000       0.06470000
N       -0.00940000      -0.01150000       0.04150000
C       -0.02800000      -0.80810000      -1.07130000
N       -0.00580000      -2.08370000      -0.77210000
C        0.02920000      -2.12840000       0.60340000
C        0.02750000      -0.86280000       1.13050000
C        0.05760000      -0.37350000       2.54120000
O        0.07520000      -1.50730000       3.38680000
H        0.87140000       1.83510000       0.54980000
H       -0.05510000       1.80430000      -0.96210000
H       -0.90650000       1.81450000       0.59360000
H       -0.05750000      -0.38390000      -2.06490000
H        0.05320000      -3.05970000       1.14550000
H        0.94580000       0.26300000       2.70750000
H       -0.82220000       0.26370000       2.74470000
H        0.10760000      -1.20020000       4.29700000
