15
Properties=species:S:1:pos:R:3 gdb_102353=T pbc="F F F"
O       -0.06200000       1.41530000       0.01010000
C        0.00710000       0.01340000       0.00200000
C       -1.44780000      -0.52370000       0.01310000
C       -1.42720000      -2.07450000       0.00460000
O       -2.76040000      -2.51290000       0.01440000
C       -2.13360000      -0.05110000       1.22990000
N       -2.62870000       0.29060000       2.21460000
C       -2.15680000      -0.03810000      -1.18520000
N       -2.67110000       0.31360000      -2.15650000
H        0.83010000       1.77460000       0.00530000
H        0.50390000      -0.37640000      -0.89830000
H        0.52100000      -0.38590000       0.88840000
H       -0.88580000      -2.39980000      -0.89560000
H       -0.86930000      -2.40940000       0.89110000
H       -2.77580000      -3.47450000       0.01080000
