18
Properties=species:S:1:pos:R:3 gdb_100564=T pbc="F F F"
O        0.44670000       0.34560000       1.01990000
C        0.03780000       0.03810000      -0.30050000
C       -1.43700000      -0.42840000      -0.40330000
O       -1.84500000      -0.35940000      -1.74020000
C       -1.64190000      -1.84750000       0.12610000
O       -2.04640000      -2.70590000      -0.64140000
C       -1.35620000      -2.14880000       1.55260000
C       -2.45570000      -2.84750000       2.30410000
N       -1.24680000      -3.56510000       1.93760000
H        0.02440000       1.17090000       1.27940000
H        0.14120000       0.89540000      -0.97760000
H        0.70640000      -0.74950000      -0.66130000
H       -2.04230000       0.25030000       0.22490000
H       -2.12530000      -1.26190000      -1.96760000
H       -0.70450000      -1.45550000       2.07120000
H       -2.57340000      -2.63030000       3.36170000
H       -3.37290000      -3.05270000       1.75900000
H       -1.43580000      -4.11750000       1.10070000
