17
Properties=species:S:1:pos:R:3 gdb_112111=T pbc="F F F"
O       -0.24020000       1.52930000      -0.43900000
C       -0.01410000       0.16890000      -0.18560000
C       -1.32240000      -0.61460000       0.10370000
C       -1.12540000      -2.10120000       0.06130000
C       -1.68460000      -2.91270000       0.94860000
C       -2.54790000      -2.40420000       2.05430000
O       -2.49060000      -0.98660000       2.26880000
C       -1.92800000      -0.11820000       1.41180000
O       -1.91430000       1.05190000       1.71820000
H       -0.75060000       1.85240000       0.31900000
H        0.44660000      -0.25630000      -1.08460000
H        0.68810000       0.00870000       0.64950000
H       -2.02500000      -0.31060000      -0.68770000
H       -0.50700000      -2.49350000      -0.74170000
H       -1.55520000      -3.98980000       0.90310000
H       -3.60140000      -2.66520000       1.88130000
H       -2.26410000      -2.85670000       3.01160000
