20
Properties=species:S:1:pos:R:3 gdb_116095=T pbc="F F F"
C       -0.17280000       1.37000000      -0.00700000
O        0.14080000      -0.00330000       0.06710000
C        0.74280000      -0.53790000      -1.09750000
C        1.31590000      -1.90190000      -0.73100000
C        2.05630000      -2.50180000      -1.92400000
N        1.23660000      -2.45740000      -3.12790000
C        0.24520000      -1.55860000      -3.41640000
O       -0.24960000      -1.48500000      -4.52560000
C       -0.25220000      -0.69960000      -2.25470000
H        0.71150000       1.97390000      -0.26430000
H       -0.96290000       1.58560000      -0.74030000
H       -0.52750000       1.67030000       0.98180000
H        1.56770000       0.12460000      -1.41650000
H        1.99840000      -1.80500000       0.11750000
H        0.49430000      -2.55870000      -0.42330000
H        3.00180000      -1.95990000      -2.08080000
H        2.31920000      -3.54450000      -1.71660000
H        1.54810000      -2.98050000      -3.93400000
H       -1.15820000      -1.17860000      -1.86180000
H       -0.55900000       0.25610000      -2.68440000
