14
Properties=species:S:1:pos:R:3 gdb_7933=T pbc="F F F"
C       -0.03390000       1.55400000      -0.02670000
C        0.03840000       0.03530000      -0.00770000
O        0.81950000      -0.46920000      -1.10990000
C        1.84600000      -1.24020000      -0.65330000
N        2.71830000      -1.84260000      -1.33360000
N        1.78250000      -1.25720000       0.73630000
C        0.74000000      -0.51570000       1.23730000
O        0.44600000      -0.33150000       2.39100000
H        0.96850000       1.98970000       0.00550000
H       -0.54000000       1.90160000      -0.93020000
H       -0.59190000       1.89420000       0.84960000
H       -0.96530000      -0.40070000      -0.07510000
H        2.56740000      -1.68700000      -2.32810000
H        2.45560000      -1.75650000       1.29560000
