16
Properties=species:S:1:pos:R:3 gdb_99417=T pbc="F F F"
C       -0.08640000       1.47080000      -0.06370000
N        0.05520000       0.01620000      -0.01440000
C        0.73240000      -0.50450000       1.19430000
C        0.70750000      -1.97890000       1.12130000
C        0.65960000      -3.17600000       1.05820000
C        2.13520000      -0.03920000       1.20760000
C        3.27410000       0.33790000       1.22710000
C        0.07230000      -0.08220000       2.45690000
C       -0.51200000       0.28740000       3.43950000
H        0.90600000       1.92740000      -0.10680000
H       -0.61840000       1.72870000      -0.98290000
H       -0.62830000       1.90070000       0.79210000
H       -0.85710000      -0.42720000      -0.05780000
H        0.62880000      -4.23640000       1.00480000
H        4.28420000       0.66630000       1.24430000
H       -1.01490000       0.60240000       4.32060000
