20
Properties=species:S:1:pos:R:3 gdb_37631=T pbc="F F F"
C       -0.03150000       1.54600000      -0.04410000
C        1.46040000       1.85420000      -0.02180000
C        2.19320000       1.04490000       1.10760000
C        1.28520000       0.44720000       2.19070000
C        0.18760000      -0.42330000       1.52080000
C        0.02990000       0.00190000       0.04350000
C        1.33210000      -0.28930000      -0.72290000
C        2.58310000       0.07890000      -0.00720000
N        2.04890000       0.95830000      -1.10490000
H       -0.59170000       2.00110000       0.77910000
H       -0.46780000       1.88390000      -0.98960000
H        1.74450000       2.89970000      -0.13990000
H        3.04160000       1.58940000       1.52550000
H        1.87440000      -0.14500000       2.89890000
H        0.83460000       1.25990000       2.77250000
H        0.46270000      -1.48290000       1.56020000
H       -0.76420000      -0.32470000       2.05350000
H       -0.82870000      -0.49150000      -0.41690000
H        1.36560000      -1.07640000      -1.46790000
H        3.51730000      -0.46580000      -0.10760000
