13
Properties=species:S:1:pos:R:3 gdb_27608=T pbc="F F F"
O        0.08110000       1.34220000      -0.05960000
C        0.06670000       0.00290000      -0.04370000
C        0.04240000      -0.69640000      -1.25160000
C        0.02850000      -2.08430000      -1.15480000
N        0.03800000      -2.72420000       0.03660000
C        0.06130000      -1.94210000       1.10620000
N        0.07640000      -0.60560000       1.13870000
C        0.00340000      -2.88890000      -2.33570000
C       -0.01770000      -3.54360000      -3.34450000
H        0.09700000       1.62610000       0.86620000
H        0.03480000      -0.18250000      -2.20290000
H        0.06920000      -2.44210000       2.07180000
H       -0.03640000      -4.13440000      -4.22730000
