19
Properties=species:S:1:pos:R:3 gdb_96505=T pbc="F F F"
C       -0.53080000       1.21310000       0.09440000
C        0.36100000      -0.02960000       0.17640000
C        1.03930000      -0.33580000      -1.17980000
C        1.54190000      -1.76940000      -1.32530000
O        2.54880000      -2.12600000      -0.38570000
C        2.13030000      -2.15510000       0.93400000
O        2.21180000      -0.89320000       1.59720000
C        1.39420000       0.15090000       1.29190000
O        1.52870000       1.17410000       1.90490000
H        0.05270000       2.09010000      -0.19730000
H       -1.32330000       1.05870000      -0.64410000
H       -0.98840000       1.43320000       1.06080000
H       -0.26750000      -0.89250000       0.44140000
H        0.30650000      -0.16290000      -1.97680000
H        1.86380000       0.36630000      -1.34920000
H        0.69560000      -2.47030000      -1.23740000
H        1.99600000      -1.91660000      -2.30870000
H        1.11170000      -2.56180000       1.02510000
H        2.83320000      -2.78220000       1.48420000
