17
Properties=species:S:1:pos:R:3 gdb_125204=T pbc="F F F"
C       -0.07530000       1.54730000       0.04370000
C        0.00610000       0.05350000      -0.01760000
C        0.06960000      -0.77280000      -1.11700000
O        0.00600000      -0.67750000      -2.46610000
C        0.26040000      -2.01630000      -2.96880000
C        0.02930000      -2.99230000      -1.77990000
N        0.16460000      -2.04850000      -0.69490000
N        0.12510000      -2.16410000       0.65390000
C        0.04860000      -0.89320000       1.04990000
H        0.87350000       2.00240000       0.35270000
H       -0.33350000       1.96390000      -0.93380000
H       -0.83910000       1.87730000       0.75580000
H       -0.40920000      -2.19260000      -3.81130000
H        1.29880000      -2.06050000      -3.31380000
H       -0.96730000      -3.44990000      -1.79190000
H        0.78160000      -3.78370000      -1.74300000
H        0.03040000      -0.67190000       2.10870000
