16
Properties=species:S:1:pos:R:3 gdb_69900=T pbc="F F F"
C       -0.13430000       1.56360000       0.26010000
C        0.07430000       0.09570000       0.09440000
O       -0.73970000      -0.82850000       0.81180000
C        0.67890000      -0.94250000       0.93310000
C        1.23380000      -1.68580000      -0.32690000
N        0.13830000      -2.04210000      -1.19920000
C        0.59200000      -0.62790000      -1.20990000
C        1.23760000      -0.07500000      -2.39880000
O        1.62280000      -0.75810000      -3.32650000
H        0.74250000       2.12600000      -0.07760000
H       -0.99790000       1.90080000      -0.32370000
H       -0.31560000       1.79770000       1.31210000
H        1.11960000      -0.91390000       1.92200000
H        2.23450000      -2.08400000      -0.43910000
H        0.54280000      -2.44440000      -2.04930000
H        1.36980000       1.02740000      -2.40330000
