20
Properties=species:S:1:pos:R:3 gdb_120351=T pbc="F F F"
O       -0.08480000       1.49720000      -0.14000000
C        0.02780000       0.09570000       0.06300000
C       -1.37490000      -0.49480000      -0.00830000
C       -1.41030000      -2.03230000       0.04900000
C       -0.89670000      -2.65070000       1.34290000
C       -1.77660000      -3.48290000       1.90380000
C       -3.04140000      -3.51910000       1.11220000
N       -3.71630000      -2.18680000       1.07010000
C       -2.82930000      -2.60290000      -0.03850000
H        0.79030000       1.88490000      -0.04780000
H        0.66850000      -0.36610000      -0.70790000
H        0.48550000      -0.12440000       1.04020000
H       -1.98620000      -0.09080000       0.80360000
H       -1.82920000      -0.16040000      -0.94890000
H       -0.82060000      -2.41890000      -0.79690000
H        0.07690000      -2.40890000       1.75430000
H       -1.63060000      -4.03700000       2.82330000
H       -3.65190000      -4.41380000       1.05300000
H       -4.68020000      -2.32180000       0.76790000
H       -3.26950000      -2.78750000      -1.01270000
