17
Properties=species:S:1:pos:R:3 gdb_105332=T pbc="F F F"
N       -0.11930000       1.39880000       0.07430000
C        0.23710000       0.00950000      -0.18250000
C        0.88220000      -0.57760000       1.06990000
O       -0.01320000      -0.53810000       2.22530000
C        0.21870000      -1.93370000       2.47580000
C       -0.31360000      -2.76150000       1.35680000
C        1.04550000      -2.10010000       1.22370000
C        2.13640000       0.12000000       1.40080000
N        3.15330000       0.60850000       1.64870000
H       -0.48360000       1.83510000      -0.76480000
H       -0.84850000       1.43670000       0.77950000
H       -0.60300000      -0.64270000      -0.46600000
H        0.97050000      -0.02710000      -0.99630000
H        0.36710000      -2.24270000       3.50260000
H       -0.25370000      -3.83590000       1.50220000
H       -1.17710000      -2.42230000       0.79430000
H        1.96380000      -2.64100000       1.04790000
