16
Properties=species:S:1:pos:R:3 gdb_25499=T pbc="F F F"
O       -0.46200000       0.80320000       0.93840000
C        0.06850000       1.07390000      -0.10620000
C        1.41600000       1.77660000      -0.22680000
C        1.37520000       2.87510000      -1.26280000
N        1.23250000       2.47630000      -2.53430000
C        1.16830000       3.41430000      -3.48140000
C        1.24660000       4.77970000      -3.22260000
C        1.39010000       5.18890000      -1.90110000
C        1.45040000       4.22280000      -0.90340000
H       -0.39250000       0.82090000      -1.08480000
H        1.71320000       2.13950000       0.75910000
H        2.13530000       1.01510000      -0.55600000
H        1.05220000       3.05420000      -4.50110000
H        1.19530000       5.49600000      -4.03450000
H        1.45370000       6.24270000      -1.65010000
H        1.55780000       4.50250000       0.13880000
