20
Properties=species:S:1:pos:R:3 gdb_97382=T pbc="F F F"
C        2.37440000      -3.30630000      -2.43450000
N        1.48680000      -2.70430000      -1.46100000
C        1.67190000      -2.99610000      -0.25330000
O        0.85820000      -2.47420000       0.70360000
C        1.19080000      -2.80620000       2.04190000
C        2.39820000      -2.08870000       2.59140000
C       -0.03630000      -3.03240000       2.89590000
C        0.79970000      -4.20950000       2.45170000
O        0.33680000      -5.12280000       1.50660000
H        3.14100000      -3.96600000      -1.99650000
H        1.78900000      -3.89090000      -3.15330000
H        2.88130000      -2.51920000      -3.00420000
H        2.44950000      -3.67110000       0.12910000
H        2.24160000      -1.00490000       2.57070000
H        2.57900000      -2.38820000       3.62770000
H        3.30140000      -2.31460000       2.01500000
H       -0.00870000      -2.72050000       3.93440000
H       -0.99270000      -2.89150000       2.40300000
H        1.41270000      -4.71710000       3.18940000
H       -0.18400000      -4.64160000       0.85350000
