23
Properties=species:S:1:pos:R:3 gdb_106763=T pbc="F F F"
C       -0.23220000       1.52320000       0.02000000
C        0.02940000       0.02390000      -0.05430000
C        1.21050000      -0.52240000      -0.92910000
C        1.76610000      -1.26370000       0.29830000
C        2.37650000      -2.63670000       0.26100000
C        2.07320000      -0.25100000       1.36780000
C        0.63600000      -0.68900000       1.16680000
C       -0.17090000      -1.29690000       2.27350000
O       -0.78720000      -0.31030000       3.09920000
H        0.67470000       2.08200000       0.27530000
H       -0.59770000       1.90930000      -0.93800000
H       -0.98530000       1.73930000       0.78480000
H       -0.89760000      -0.48660000      -0.33830000
H        0.87310000      -1.19050000      -1.72600000
H        1.87820000       0.22850000      -1.36660000
H        3.35840000      -2.61680000      -0.22810000
H        2.52070000      -3.04070000       1.26840000
H        1.74670000      -3.34050000      -0.29560000
H        2.55120000      -0.65270000       2.25780000
H        2.40290000       0.75230000       1.10750000
H       -1.00100000      -1.88700000       1.86780000
H        0.45500000      -1.98100000       2.87020000
H       -0.08850000       0.28190000       3.39760000
