19
Properties=species:S:1:pos:R:3 gdb_118311=T pbc="F F F"
C       -0.04680000       1.50000000       0.00090000
C       -0.02020000       0.04480000       0.02650000
C        0.00070000      -1.15890000       0.06820000
C        0.04120000      -2.61750000       0.05720000
C       -1.37850000      -3.23240000      -0.05310000
C       -1.38890000      -4.74490000       0.14080000
O       -2.73580000      -5.17230000       0.01820000
C        0.89040000      -3.07780000      -1.13180000
O        1.78140000      -3.88090000      -1.06210000
H        0.85160000       1.90500000      -0.47750000
H       -0.91560000       1.87290000      -0.55230000
H       -0.09650000       1.91180000       1.01480000
H        0.53230000      -2.99570000       0.96210000
H       -2.02140000      -2.76870000       0.70060000
H       -1.81220000      -2.98830000      -1.02960000
H       -0.74360000      -5.23170000      -0.60630000
H       -0.97670000      -4.99230000       1.13280000
H       -2.75720000      -6.12900000       0.11140000
H        0.59640000      -2.60590000      -2.09620000
