19
Properties=species:S:1:pos:R:3 gdb_52141=T pbc="F F F"
N       -0.28490000       0.88350000       1.26570000
C       -0.45350000      -0.35840000       1.12030000
O       -0.49680000      -0.88180000      -0.12640000
C       -0.69660000      -2.29270000      -0.21760000
C       -2.15180000      -2.65610000       0.02060000
C       -2.69630000      -4.10650000       0.02310000
C       -2.02680000      -4.23970000       1.40700000
N       -2.64090000      -2.82560000       1.48510000
C       -3.86440000      -3.49320000       0.82790000
H       -0.27130000       1.11320000       2.25740000
H       -0.58230000      -1.10210000       1.91550000
H       -0.42410000      -2.55140000      -1.24520000
H       -0.00380000      -2.81380000       0.45130000
H       -2.76650000      -1.92580000      -0.51680000
H       -2.73110000      -4.82690000      -0.80160000
H       -2.47360000      -4.93520000       2.12200000
H       -0.93920000      -4.27100000       1.47740000
H       -4.52860000      -2.78660000       0.32390000
H       -4.41460000      -4.14800000       1.50810000
