22
Properties=species:S:1:pos:R:3 gdb_119610=T pbc="F F F"
C        0.17010000       1.58940000      -0.07080000
C        0.21640000       0.05970000      -0.07100000
C        0.44670000      -0.52990000       1.32860000
C        0.55650000      -2.03480000       1.32960000
C       -0.66330000      -2.89540000       1.01830000
O       -0.31530000      -4.22020000       1.41180000
C        0.57790000      -4.12570000       2.51990000
C        1.35570000      -2.84530000       2.28770000
N        1.84480000      -2.62040000       0.91990000
H        1.10740000       2.01220000       0.30760000
H        0.01030000       1.98390000      -1.07910000
H       -0.64040000       1.96320000       0.56510000
H       -0.72000000      -0.33300000      -0.48840000
H        1.01930000      -0.28930000      -0.73120000
H        1.37130000      -0.11490000       1.74540000
H       -0.36910000      -0.22440000       1.99860000
H       -1.53470000      -2.52240000       1.58240000
H       -0.93150000      -2.93280000      -0.04290000
H        0.03330000      -4.06850000       3.47690000
H        1.18950000      -5.03440000       2.52420000
H        1.94280000      -2.41530000       3.09320000
H        1.68770000      -3.45860000       0.36100000
