17
Properties=species:S:1:pos:R:3 gdb_110230=T pbc="F F F"
C       -0.23620000       1.49470000      -0.01250000
C        0.01770000       0.02890000       0.08200000
O       -0.80840000      -0.83830000      -0.76470000
C       -0.99780000      -1.71150000       0.30020000
O       -1.71210000      -2.66020000       0.33320000
C       -0.07190000      -0.97000000       1.22130000
C        1.25400000      -0.70080000       0.46520000
C        1.96420000      -1.74540000      -0.37170000
O        2.61780000      -2.71330000       0.43100000
H        0.34990000       2.02900000       0.74020000
H        0.05310000       1.87140000      -0.99910000
H       -1.29620000       1.71530000       0.14190000
H       -0.18080000      -0.84420000       2.28880000
H        1.92460000      -0.10870000       1.08630000
H        1.26520000      -2.20210000      -1.08340000
H        2.75360000      -1.26020000      -0.95550000
H        1.93820000      -3.21610000       0.89270000
