15
Properties=species:S:1:pos:R:3 gdb_30544=T pbc="F F F"
N        0.01340000       1.36850000      -0.01730000
C        0.05220000       0.02040000      -0.00240000
N        1.16680000      -0.62040000      -0.02820000
C        1.12410000      -2.01090000      -0.02890000
N       -0.03160000      -2.69040000      -0.02940000
C        0.05110000      -4.02050000      -0.02990000
C        1.26900000      -4.69060000      -0.03100000
N        2.43080000      -4.02550000      -0.03130000
C        2.35220000      -2.70160000      -0.03030000
H        0.87720000       1.88620000      -0.00840000
H       -0.85410000       1.86590000       0.06190000
H       -0.92280000      -0.47290000       0.02430000
H       -0.88700000      -4.57190000      -0.03040000
H        1.31400000      -5.77590000      -0.03230000
H        3.27770000      -2.13270000      -0.03060000
