17
Properties=species:S:1:pos:R:3 gdb_85080=T pbc="F F F"
C       -0.50090000       1.36150000      -0.03310000
C       -0.00810000      -0.06370000       0.17280000
O        0.42700000      -0.52780000      -1.13900000
C        1.33490000      -1.50060000      -1.25450000
O        1.78290000      -1.81570000      -2.32920000
C        1.79470000      -2.20220000       0.02650000
O        2.96870000      -2.92400000      -0.21900000
C        1.95990000      -1.18110000       1.12090000
C        1.09020000      -0.18100000       1.19650000
H        0.32560000       2.01260000      -0.33090000
H       -1.26830000       1.39170000      -0.80960000
H       -0.93000000       1.74280000       0.89820000
H       -0.85700000      -0.70210000       0.45970000
H        0.97330000      -2.89020000       0.31120000
H        3.05170000      -2.95180000      -1.18550000
H        2.78380000      -1.31980000       1.81190000
H        1.12940000       0.57230000       1.97620000
