16
Properties=species:S:1:pos:R:3 gdb_50488=T pbc="F F F"
O       -0.12610000      -0.01690000       0.01660000
C       -0.03230000       1.19150000       0.02000000
N        1.14910000       1.88110000       0.00460000
C        1.27420000       3.35250000       0.00150000
C        2.80710000       3.60250000       0.00870000
C        3.40020000       2.19730000      -0.02300000
C        2.40750000       1.28990000      -0.02000000
C        4.78420000       1.94510000      -0.04460000
C        5.97950000       1.78430000      -0.06280000
H       -0.90410000       1.87320000       0.03680000
H        0.79490000       3.76920000      -0.88920000
H        0.78170000       3.77600000       0.88120000
H        3.12790000       4.19230000      -0.85530000
H        3.12770000       4.14820000       0.90190000
H        2.46420000       0.21250000      -0.03240000
H        7.02850000       1.62300000      -0.07880000
