16
Properties=species:S:1:pos:R:3 gdb_98391=T pbc="F F F"
N        0.11140000       1.46790000      -0.00660000
C        0.04190000       0.02190000       0.05380000
C       -1.39470000      -0.53470000      -0.00120000
O       -2.34110000       0.21490000      -0.07510000
N       -1.59410000      -1.93850000       0.02610000
C       -2.94290000      -2.38260000      -0.11740000
N       -3.31750000      -3.52690000       0.25940000
C       -0.50780000      -2.83990000       0.10840000
O       -0.57390000      -4.02590000      -0.03650000
H       -0.36010000       1.78990000      -0.84730000
H       -0.42930000       1.86080000       0.75880000
H        0.62500000      -0.40210000      -0.77220000
H        0.52530000      -0.31990000       0.97680000
H       -3.55980000      -1.60050000      -0.55850000
H       -4.31030000      -3.64300000       0.05470000
H        0.43900000      -2.32010000       0.31790000
