12
Properties=species:S:1:pos:R:3 gdb_132124=T pbc="F F F"
N        0.07680000       1.44060000       0.22310000
C        0.03340000       0.05130000       0.07340000
C       -1.11330000      -0.66030000      -0.07450000
F       -2.30530000      -0.10640000      -0.17500000
O       -1.15700000      -1.98140000      -0.14310000
C        0.02580000      -2.75940000      -0.06050000
O       -0.06510000      -3.95110000      -0.11940000
C        1.21640000      -1.93140000       0.08240000
N        1.20960000      -0.63740000       0.14260000
H        0.97730000       1.80920000      -0.05360000
H       -0.68030000       1.92640000      -0.23810000
H        2.16310000      -2.45960000       0.13610000
