16
Properties=species:S:1:pos:R:3 gdb_53029=T pbc="F F F"
C        0.01050000       1.41130000       0.05760000
C        0.00490000      -0.04190000       0.04400000
C        0.00200000      -1.24660000       0.03650000
C       -0.00720000      -2.66920000       0.01570000
O        0.53490000      -3.44610000       1.13820000
C        0.08880000      -4.47130000       0.21220000
C       -1.17470000      -3.68520000      -0.26540000
N       -0.84630000      -3.74400000      -1.72500000
C        0.50050000      -3.68420000      -1.07360000
H        0.58750000       1.81410000      -0.78190000
H       -1.00640000       1.81300000      -0.00970000
H        0.45850000       1.78970000       0.98280000
H        0.22000000      -5.51880000       0.48290000
H       -2.18810000      -3.67600000       0.13600000
H       -1.01940000      -4.68580000      -2.08500000
H        1.44540000      -3.67380000      -1.61700000
