24
Properties=species:S:1:pos:R:3 gdb_88657=T pbc="F F F"
C        2.76790000       2.53190000      -1.79530000
C        2.38350000       1.05790000      -1.70600000
C        3.58730000       0.07270000      -1.79590000
C        3.55740000      -0.07980000      -0.24550000
C        2.13000000       0.54570000      -0.25700000
C        3.72520000      -1.47000000       0.30870000
C        5.05470000      -1.97610000       0.76410000
N        3.97560000      -1.77000000       1.72160000
C        4.12110000      -0.68820000       2.68370000
H        3.57660000       2.77910000      -1.09750000
H        3.11070000       2.79060000      -2.80320000
H        1.91590000       3.17720000      -1.55440000
H        1.57300000       0.85210000      -2.41160000
H        3.31750000      -0.86270000      -2.29650000
H        4.51110000       0.44980000      -2.24390000
H        4.27450000       0.60550000       0.21240000
H        1.90610000       1.29780000       0.50530000
H        1.35410000      -0.22540000      -0.21950000
H        3.04690000      -2.19260000      -0.14900000
H        5.35600000      -3.00630000       0.59040000
H        5.87670000      -1.25920000       0.76290000
H        4.70120000       0.17650000       2.32480000
H        3.13030000      -0.33430000       2.98690000
H        4.62620000      -1.07970000       3.57290000
