16
Properties=species:S:1:pos:R:3 gdb_66876=T pbc="F F F"
N        0.12550000       1.48400000      -0.03300000
C        0.02280000       0.07680000       0.02380000
C       -0.20870000      -0.81380000      -1.25430000
N        0.75530000      -1.87630000      -1.29010000
C        0.70620000      -2.32790000      -0.08980000
C        1.78020000      -1.90890000       0.88590000
C        0.62340000      -0.84100000       1.14120000
N       -0.43200000      -1.87920000       0.77370000
C       -1.14530000      -0.91000000      -0.08570000
H        0.32110000       1.84490000      -0.95670000
H       -0.66760000       1.97310000       0.36170000
H       -0.48100000      -0.29660000      -2.16690000
H        1.91450000      -2.50990000       1.78710000
H        2.72100000      -1.60160000       0.43690000
H        0.55080000      -0.43360000       2.15160000
H       -2.22280000      -0.80850000      -0.08200000
