18
Properties=species:S:1:pos:R:3 gdb_112197=T pbc="F F F"
C       -0.09810000       1.57590000       0.11130000
C        0.33830000       0.12530000      -0.11780000
C        0.71430000      -0.58230000       1.16740000
O       -0.43420000      -0.72880000       2.08650000
C       -0.29330000      -2.10320000       2.15530000
N       -0.91810000      -2.97230000       2.80420000
C        0.84760000      -2.10810000       1.17870000
C        1.21400000      -3.07990000       0.14810000
O        2.03840000      -2.84370000       1.29740000
H        0.70720000       2.16500000       0.56310000
H       -0.37520000       2.05410000      -0.83230000
H       -0.96140000       1.61670000       0.78120000
H       -0.46190000      -0.43940000      -0.61030000
H        1.20930000       0.09230000      -0.78530000
H        1.53310000      -0.07790000       1.69180000
H       -1.64970000      -2.55930000       3.38470000
H        0.70730000      -4.04240000       0.12860000
H        1.62110000      -2.72980000      -0.79900000
