14
Properties=species:S:1:pos:R:3 gdb_127904=T pbc="F F F"
C       -0.28100000       1.44810000      -0.08520000
N        0.08650000       0.05570000       0.05950000
C        0.71730000      -0.56280000      -0.84380000
N        1.06670000      -1.88610000      -0.70630000
C        1.75170000      -2.63210000      -1.64050000
N        2.03260000      -3.84570000      -1.43460000
O        2.09120000      -1.95960000      -2.77930000
N        1.72880000      -0.52820000      -2.96010000
N        1.12210000       0.04490000      -2.07710000
H        0.15380000       2.01200000       0.74780000
H        0.03100000       1.90510000      -1.02950000
H       -1.36900000       1.53380000       0.01340000
H        0.80320000      -2.35950000       0.14570000
H        2.53810000      -4.24180000      -2.22360000
