21
Properties=species:S:1:pos:R:3 gdb_95551=T pbc="F F F"
O       -0.25530000       1.46080000       0.28530000
C        0.04220000       0.06580000       0.18220000
C        0.51900000      -0.48650000       1.52790000
C        1.11940000      -1.89770000       1.47270000
C        0.15710000      -3.03550000       1.24990000
C       -0.96930000      -3.05660000       0.53400000
C       -1.63470000      -1.99630000      -0.26100000
C       -2.42870000      -0.87800000       0.40690000
C       -1.20520000      -0.55600000      -0.40650000
H        0.54680000       1.91130000       0.56900000
H        0.86040000      -0.08200000      -0.54540000
H        1.29560000       0.19830000       1.89510000
H       -0.29460000      -0.44470000       2.26010000
H        1.90280000      -1.92240000       0.69820000
H        1.64800000      -2.08220000       2.41520000
H        0.43910000      -3.96620000       1.73880000
H       -1.51160000      -4.00140000       0.51080000
H       -2.11210000      -2.39920000      -1.15130000
H       -3.40130000      -0.61290000       0.00720000
H       -2.35700000      -0.81790000       1.48650000
H       -1.41780000      -0.13160000      -1.38430000
