18
Properties=species:S:1:pos:R:3 gdb_125945=T pbc="F F F"
C       -0.02870000       1.59580000      -0.01040000
C        0.02420000       0.06720000       0.05360000
C        0.74140000      -0.59000000      -1.18090000
C        1.55210000      -1.83940000      -0.68310000
C        1.65760000      -1.52140000       0.77220000
C        0.83940000      -0.50490000       1.17860000
N        0.96850000      -0.31970000       2.51680000
N        1.84230000      -1.18160000       2.96530000
N        2.26440000      -1.92870000       1.90380000
H        0.97980000       2.01780000      -0.07450000
H       -0.59660000       1.93240000      -0.88410000
H       -0.50630000       2.00500000       0.88440000
H       -1.00620000      -0.30970000       0.11860000
H        0.03980000      -0.85060000      -1.97720000
H        1.44540000       0.13850000      -1.59690000
H        1.00190000      -2.77390000      -0.85100000
H        2.51260000      -1.93780000      -1.19880000
H        2.95300000      -2.64570000       2.06380000
