17
Properties=species:S:1:pos:R:3 gdb_70781=T pbc="F F F"
O       -0.06360000       1.31940000       0.05980000
C        0.05740000      -0.05330000       0.05710000
C        0.77350000      -0.97240000       1.06400000
C        0.09280000      -1.93430000       0.05490000
C        0.10130000      -3.36200000       0.04440000
C        0.11400000      -4.56550000       0.04380000
C       -1.17420000      -0.99620000      -0.08950000
C       -1.09040000      -1.00110000      -1.62860000
C        0.38210000      -0.98620000      -1.17430000
H        0.81460000       1.70690000      -0.02240000
H        1.86860000      -0.96890000       1.05970000
H        0.38290000      -0.98850000       2.08580000
H        0.12500000      -5.62710000       0.04300000
H       -2.04400000      -1.02240000       0.56800000
H       -1.43780000      -1.90520000      -2.13540000
H       -1.45140000      -0.10230000      -2.13440000
H        1.29980000      -0.99860000      -1.76500000
