23
Properties=species:S:1:pos:R:3 gdb_92356=T pbc="F F F"
C        0.05540000       1.47360000       0.01750000
C        0.02060000      -0.04630000      -0.00800000
C        0.63690000      -0.68450000      -1.28180000
C        0.04500000      -2.12720000      -1.30510000
C       -0.80160000      -2.17520000      -0.01430000
C        0.15710000      -2.17120000       1.19750000
C        0.69470000      -0.70370000       1.22200000
O        2.10660000      -0.58160000       1.12650000
C       -1.36280000      -0.73770000       0.03860000
H        1.08840000       1.83640000       0.02330000
H       -0.44620000       1.89790000      -0.85900000
H       -0.44090000       1.86850000       0.91160000
H        0.33260000      -0.11540000      -2.16580000
H        1.72680000      -0.67400000      -1.23930000
H       -0.58530000      -2.28270000      -2.18650000
H        0.81740000      -2.90200000      -1.31870000
H       -1.53590000      -2.98320000       0.00490000
H       -0.37020000      -2.41530000       2.12530000
H        0.98080000      -2.88320000       1.08190000
H        0.34470000      -0.18890000       2.12990000
H        2.49470000      -0.97630000       1.91270000
H       -1.92220000      -0.52000000       0.95550000
H       -1.99090000      -0.48260000      -0.82140000
