14
Properties=species:S:1:pos:R:3 gdb_8747=T pbc="F F F"
O        1.43250000       1.48790000      -0.83200000
C        0.56930000       0.64820000      -0.09290000
C        0.17950000      -0.54590000      -0.84500000
C       -0.06750000      -1.53720000      -1.47830000
C        1.20150000       0.24980000       1.28410000
O        1.74600000       1.37370000       1.94510000
C        0.22550000      -0.46120000       2.11210000
C       -0.60900000      -0.97850000       2.80540000
H        2.16790000       0.95270000      -1.15170000
H       -0.31700000       1.25910000       0.11820000
H       -0.31000000      -2.40810000      -2.03620000
H        2.05670000      -0.40450000       1.07470000
H        1.01520000       1.91510000       2.26450000
H       -1.33380000      -1.45700000       3.41700000
