15
Properties=species:S:1:pos:R:3 gdb_81087=T pbc="F F F"
O        0.18010000       1.35650000      -0.19810000
C        0.04400000      -0.01490000      -0.04140000
C        0.00660000      -0.66640000       1.39590000
C       -1.47470000      -0.15030000       1.50700000
C       -1.40920000      -0.67220000       0.03310000
C       -2.48130000      -0.66450000      -0.98830000
O       -3.59480000      -0.24240000      -0.78650000
C       -0.61750000      -1.85490000       0.66880000
O       -0.56640000      -3.04040000       0.61780000
H       -0.40220000       1.82640000       0.40820000
H        0.73340000      -0.47030000      -0.75380000
H        0.78200000      -0.65120000       2.15770000
H       -2.14060000      -0.67740000       2.18970000
H       -1.59810000       0.92780000       1.62230000
H       -2.18850000      -1.08190000      -1.97640000
