21
Properties=species:S:1:pos:R:3 gdb_109557=T pbc="F F F"
C       -0.33080000       1.53130000      -0.05640000
C       -0.04050000       0.03280000      -0.02800000
C        1.23440000      -0.41570000      -0.84920000
C        1.83320000       0.42700000      -1.96580000
C        1.95460000      -0.49960000       0.49770000
O        3.10330000      -0.38650000       0.84220000
C        0.64530000      -0.50000000       1.28540000
C        0.68960000       0.27210000       2.60490000
O        1.63540000      -0.31480000       3.47890000
H        0.54820000       2.13100000       0.20220000
H       -0.65950000       1.84370000      -1.05270000
H       -1.12520000       1.78970000       0.65100000
H       -0.94330000      -0.51940000      -0.29810000
H        1.07230000      -1.44320000      -1.20070000
H        2.00500000       1.45850000      -1.64690000
H        2.79810000       0.01230000      -2.27210000
H        1.17930000       0.44590000      -2.84330000
H        0.33880000      -1.53240000       1.48960000
H        0.92120000       1.33150000       2.41800000
H       -0.27940000       0.23630000       3.11440000
H        2.47840000      -0.31890000       3.00560000
