12
Properties=species:S:1:pos:R:3 gdb_4717=T pbc="F F F"
O        0.07530000       1.31680000       0.19050000
C        0.06910000      -0.00860000       0.03010000
N        0.09120000      -0.65550000      -1.11890000
C        0.07310000      -1.97670000      -0.76800000
C        0.04000000      -2.13480000       0.60280000
N        0.03800000      -0.82460000       1.10080000
C        0.01170000      -3.31010000       1.44410000
O        0.01280000      -4.45300000       1.03620000
H        0.09890000       1.70210000      -0.69560000
H        0.08440000      -2.76340000      -1.50610000
H        0.01760000      -0.53720000       2.06540000
H       -0.01210000      -3.09040000       2.53830000
