19
Properties=species:S:1:pos:R:3 gdb_39198=T pbc="F F F"
C       -0.00520000       1.52960000       0.14450000
C        1.53480000       1.41310000       0.01050000
O        2.14370000       1.12030000       1.25920000
C        1.32670000       0.29270000       2.09070000
C        0.57880000      -0.75620000       1.24170000
C        1.62890000      -1.66830000       0.61630000
C        2.07780000      -1.13930000      -0.52240000
C        1.28400000       0.09440000      -0.84330000
C       -0.01820000      -0.01380000       0.00110000
H       -0.41450000       2.00610000       1.03810000
H       -0.43710000       2.00330000      -0.74080000
H        2.11020000       2.22680000      -0.43430000
H        2.00100000      -0.17710000       2.81300000
H        0.61050000       0.90830000       2.65480000
H       -0.16730000      -1.27090000       1.85470000
H        2.02800000      -2.54060000       1.12150000
H        2.89760000      -1.51520000      -1.12280000
H        1.14550000       0.32690000      -1.90190000
H       -0.89280000      -0.51810000      -0.41610000
