18
Properties=species:S:1:pos:R:3 gdb_45145=T pbc="F F F"
O       -0.09620000       0.02690000       0.41260000
C       -0.09070000       1.18930000       0.13430000
C       -1.15760000       2.27830000      -0.11990000
C        0.02430000       3.26820000      -0.02010000
C        0.51180000       3.73350000       1.38140000
C        1.55450000       2.60330000       1.30750000
C        3.02150000       2.66070000       1.58990000
C        2.12060000       1.72020000       2.36910000
N        0.99730000       2.10900000       0.01880000
H       -1.64010000       2.22980000      -1.09950000
H       -1.92670000       2.33430000       0.65390000
H        0.15130000       3.97840000      -0.83810000
H        0.91820000       4.74660000       1.41750000
H       -0.22990000       3.61970000       2.17800000
H        3.68600000       2.22780000       0.85060000
H        3.40730000       3.54080000       2.09430000
H        1.89180000       1.95980000       3.40260000
H        2.17800000       0.65990000       2.15250000
