20
Properties=species:S:1:pos:R:3 gdb_18083=T pbc="F F F"
C        0.22230000       1.32030000      -0.07580000
O        0.37160000      -0.07680000      -0.03590000
C        0.51380000      -0.57370000       1.28170000
C        0.60060000      -2.07600000       1.21800000
C        1.82790000      -2.85930000       0.83800000
C        3.10900000      -2.22080000       1.38900000
C        2.52500000      -2.33230000       2.83510000
C        1.24580000      -2.95520000       2.25660000
H        1.09500000       1.84030000       0.35240000
H        0.12060000       1.61080000      -1.12460000
H       -0.67330000       1.65450000       0.47320000
H        1.40360000      -0.13310000       1.75740000
H       -0.35410000      -0.27390000       1.89530000
H       -0.30450000      -2.52050000       0.80900000
H        1.79370000      -3.58870000       0.03760000
H        3.98770000      -2.85490000       1.25350000
H        3.34910000      -1.21930000       1.01820000
H        3.08830000      -3.04270000       3.44430000
H        2.41180000      -1.40720000       3.40960000
H        0.69580000      -3.76880000       2.71530000
