17
Properties=species:S:1:pos:R:3 gdb_70806=T pbc="F F F"
C        0.02380000       1.49200000       0.07950000
C       -0.03700000      -0.00180000       0.04320000
C       -1.27230000      -0.88330000      -0.18990000
C       -0.35900000      -2.08140000       0.15700000
O       -0.89340000      -3.25560000       0.60630000
C        0.63200000      -1.01570000       0.86820000
N        1.18110000      -0.72110000      -0.52700000
C        0.68640000      -2.02740000      -0.91870000
N        1.13220000      -2.92100000      -1.68140000
H        1.02790000       1.83020000       0.34700000
H       -0.22890000       1.91420000      -0.89870000
H       -0.68640000       1.88600000       0.81390000
H       -2.01870000      -0.71130000       0.59010000
H       -1.74580000      -0.88820000      -1.17740000
H       -0.33150000      -3.97190000       0.28160000
H        1.26940000      -1.01700000       1.74130000
H        1.94790000      -2.58980000      -2.20130000
