17
Properties=species:S:1:pos:R:3 gdb_7908=T pbc="F F F"
C       -0.10550000       1.53630000      -0.00580000
C        0.02060000       0.01470000      -0.02290000
O        0.85880000      -0.39310000      -1.12130000
C        1.90610000      -1.14180000      -0.65220000
N        2.82000000      -1.65530000      -1.36410000
C        1.78820000      -1.24920000       0.81620000
C        2.78650000      -1.99960000       1.63100000
C        0.69050000      -0.58280000       1.18250000
H        0.87330000       1.99910000       0.14730000
H       -0.51970000       1.89250000      -0.95270000
H       -0.77240000       1.85100000       0.80320000
H       -0.97220000      -0.42970000      -0.18690000
H        2.67570000      -1.43550000      -2.35060000
H        2.84360000      -3.04150000       1.29940000
H        3.78770000      -1.57890000       1.49160000
H        2.53680000      -1.97770000       2.69440000
H        0.30500000      -0.45970000       2.18680000
