18
Properties=species:S:1:pos:R:3 gdb_98085=T pbc="F F F"
C       -0.46530000       1.34200000       0.33340000
O       -0.03340000      -0.02660000       0.28770000
C        0.10400000      -0.62230000       1.47430000
O       -0.08270000      -0.08770000       2.54020000
C        0.42570000      -2.11480000       1.28180000
O       -0.30410000      -2.76840000       0.55760000
N        1.47130000      -2.62360000       1.98850000
C        1.73680000      -4.05120000       1.90090000
C        2.38040000      -1.86110000       2.82610000
H        0.23230000       1.94710000       0.91770000
H       -0.49090000       1.67610000      -0.70310000
H       -1.45800000       1.41230000       0.78440000
H        2.74270000      -4.22960000       1.50200000
H        1.67370000      -4.51130000       2.89440000
H        0.99670000      -4.50070000       1.24120000
H        2.33460000      -2.21930000       3.86190000
H        3.41120000      -1.98260000       2.46980000
H        2.12310000      -0.80540000       2.82410000
