22
Properties=species:S:1:pos:R:3 gdb_102380=T pbc="F F F"
C        0.12690000       1.55510000      -0.07270000
C        0.04010000       0.03580000       0.09680000
C       -1.40660000      -0.52340000       0.04120000
C       -2.27680000      -0.00440000       1.20670000
C       -3.69270000      -0.58320000       1.23760000
O       -2.09110000      -0.14340000      -1.14450000
C       -1.58590000      -0.63680000      -2.37460000
C       -1.31940000      -2.00690000       0.12640000
N       -1.23540000      -3.15830000       0.18600000
H        1.17360000       1.86320000      -0.14750000
H       -0.39060000       1.88120000      -0.97870000
H       -0.31260000       2.08870000       0.77440000
H        0.63320000      -0.45800000      -0.67980000
H        0.48170000      -0.27240000       1.05060000
H       -1.75270000      -0.22140000       2.14390000
H       -2.32430000       1.08340000       1.10410000
H       -4.21870000      -0.36570000       0.30550000
H       -3.67740000      -1.66840000       1.37630000
H       -4.26110000      -0.14670000       2.06380000
H       -0.60450000      -0.21230000      -2.62360000
H       -1.51030000      -1.73160000      -2.37250000
H       -2.30270000      -0.33130000      -3.13960000
