18
Properties=species:S:1:pos:R:3 gdb_92820=T pbc="F F F"
C        0.04110000       1.55790000       0.09250000
C       -0.02800000       0.03210000       0.00700000
C        0.86390000      -0.57800000      -1.14490000
N        2.03070000      -1.23450000      -0.51500000
C        1.78720000      -1.23040000       0.73370000
C        2.46770000      -1.66700000       2.01150000
N        1.61060000      -1.14070000       3.09940000
C        0.61450000      -0.56800000       2.52900000
N        0.59960000      -0.63150000       1.14860000
H        1.08000000       1.89370000       0.17130000
H       -0.39660000       2.00280000      -0.80670000
H       -0.51090000       1.93770000       0.95830000
H       -1.07090000      -0.28540000      -0.09340000
H        0.30390000      -1.31610000      -1.73090000
H        1.19710000       0.20050000      -1.83960000
H        2.53880000      -2.75840000       2.08320000
H        3.48560000      -1.27370000       2.09650000
H       -0.19210000      -0.08350000       3.06890000
