25
Properties=species:S:1:pos:R:3 gdb_60378=T pbc="F F F"
C        0.02710000       1.52700000       0.29730000
C       -0.07020000       0.02640000      -0.01250000
C       -1.53870000      -0.40250000      -0.13670000
C        0.71270000      -0.36620000      -1.27930000
C        2.23380000      -0.18240000      -1.18830000
C        2.96750000      -0.63250000      -2.43850000
O        2.83060000      -2.00000000      -2.74270000
C        3.12820000       0.31610000      -3.60320000
C        4.32240000      -0.07960000      -2.75260000
H        1.05810000       1.84780000       0.47190000
H       -0.37310000       2.12290000      -0.53230000
H       -0.55060000       1.77840000       1.19300000
H        0.36970000      -0.52270000       0.83290000
H       -2.02720000       0.11120000      -0.97370000
H       -1.62680000      -1.48000000      -0.31160000
H       -2.10150000      -0.16260000       0.77150000
H        0.50220000      -1.42240000      -1.49470000
H        0.32500000       0.20800000      -2.13340000
H        2.47840000       0.86950000      -1.00350000
H        2.61920000      -0.75400000      -0.33350000
H        1.94410000      -2.13680000      -3.09320000
H        3.07050000      -0.10790000      -4.59950000
H        2.73930000       1.32510000      -3.51330000
H        4.74970000       0.65830000      -2.08240000
H        5.03490000      -0.76890000      -3.19030000
