17
Properties=species:S:1:pos:R:3 gdb_77194=T pbc="F F F"
C        0.31070000       1.76940000      -0.08040000
C        0.04080000       0.27640000      -0.17900000
C        0.57210000      -0.39370000      -1.49430000
N        1.75930000      -0.87210000      -0.72730000
C        1.05980000      -0.65840000       0.55760000
C        1.88070000      -0.08820000       1.62570000
N        2.50830000       0.36680000       2.48310000
C       -0.28240000      -1.44140000      -2.03290000
C       -0.97040000      -2.32900000      -2.46430000
H        1.35200000       2.00020000      -0.32330000
H       -0.33480000       2.31690000      -0.77440000
H        0.11170000       2.13690000       0.93060000
H       -0.99940000       0.04420000       0.04930000
H        0.84580000       0.31290000      -2.28590000
H        2.03570000      -1.83030000      -0.91320000
H        0.55720000      -1.55070000       0.95340000
H       -1.58070000      -3.10530000      -2.85590000
