16
Properties=species:S:1:pos:R:3 gdb_12035=T pbc="F F F"
C       -0.07400000       1.57240000       0.02290000
C        0.03700000       0.04300000       0.02430000
C        1.13940000      -0.64670000      -0.85850000
N        1.71930000      -1.38460000       0.31410000
C        2.18700000      -0.34300000       1.24330000
C        0.74390000      -0.64440000       1.21090000
C       -1.27720000      -0.54890000      -0.21860000
N       -2.32440000      -1.00050000      -0.40890000
H        0.90020000       2.02970000       0.20940000
H       -0.44200000       1.92940000      -0.94340000
H       -0.76900000       1.91180000       0.79630000
H        0.73920000      -1.34510000      -1.59320000
H        1.84160000       0.03860000      -1.34440000
H        2.75110000      -0.74460000       2.07920000
H        2.57500000       0.59090000       0.84350000
H        0.22280000      -1.13800000       2.02410000
