14
Properties=species:S:1:pos:R:3 gdb_124203=T pbc="F F F"
C       -0.00250000       1.49340000      -0.00830000
C       -0.00240000       0.04030000       0.04720000
C       -0.00720000      -1.16130000       0.09250000
C       -0.00430000      -2.61440000       0.14850000
N       -1.34540000      -3.19190000      -0.01030000
N       -2.17450000      -3.42520000       0.99420000
N       -3.24790000      -3.89960000       0.44090000
N       -3.06770000      -3.95080000      -0.89450000
N       -1.88140000      -3.50830000      -1.17810000
H        0.61690000       1.85790000      -0.83430000
H       -1.01820000       1.87430000      -0.15790000
H        0.38350000       1.92490000       0.92100000
H        0.60700000      -3.04750000      -0.64800000
H        0.37000000      -2.98030000       1.10850000
