13
Properties=species:S:1:pos:R:3 gdb_5029=T pbc="F F F"
N        0.04620000       1.38360000       0.01740000
C       -0.02280000       0.01030000       0.03070000
C       -1.15280000      -0.72300000       0.09500000
O       -1.12100000      -2.09900000       0.16960000
C        0.08580000      -2.67860000       0.17760000
N        1.22200000      -2.10240000       0.10660000
C        1.26660000      -0.70510000       0.00810000
N        2.34630000      -0.02810000      -0.10960000
H        0.95670000       1.71400000      -0.27710000
H       -0.74110000       1.89050000      -0.35510000
H       -2.16450000      -0.34400000       0.10580000
H       -0.00250000      -3.75830000       0.25290000
H        3.14790000      -0.65970000      -0.11860000
