17
Properties=species:S:1:pos:R:3 gdb_72106=T pbc="F F F"
O       -0.14400000       1.41650000      -0.08390000
C       -0.01460000       0.03310000      -0.04070000
C        1.00030000      -0.68990000      -0.91740000
C        0.44600000      -2.12780000      -0.84780000
C        0.77620000      -2.75390000       0.50560000
O        0.41940000      -1.86960000       1.57270000
C       -0.38600000      -0.79100000       1.18030000
C       -1.23280000      -0.86290000      -0.07490000
O       -0.98300000      -1.97300000      -0.90380000
H        0.55180000       1.80120000       0.46110000
H        0.96540000      -0.28790000      -1.93410000
H        2.02720000      -0.63300000      -0.54260000
H        0.74950000      -2.77650000      -1.67120000
H        0.22070000      -3.69520000       0.60790000
H        1.84900000      -2.96790000       0.59380000
H       -0.79520000      -0.27240000       2.04080000
H       -2.25430000      -0.50530000      -0.11080000
