17
Properties=species:S:1:pos:R:3 gdb_113528=T pbc="F F F"
O        0.02690000       1.33500000      -0.50920000
C        0.02690000       0.14440000       0.25470000
C       -1.34720000      -0.48290000       0.29120000
N       -1.74960000      -1.12940000      -0.97370000
C       -1.54360000      -1.94800000       0.21130000
C       -0.62350000      -3.15650000       0.36780000
O       -1.70260000      -3.84090000       1.09230000
C       -2.56640000      -2.77590000       0.91890000
N       -3.77010000      -2.61190000       1.22530000
H       -0.28750000       1.09310000      -1.38830000
H        0.75150000      -0.58640000      -0.13720000
H        0.34370000       0.42290000       1.26500000
H       -2.11040000       0.07280000       0.83200000
H       -2.75010000      -1.02370000      -1.13260000
H       -0.37490000      -3.68150000      -0.55700000
H        0.25770000      -3.03770000       1.00220000
H       -4.16530000      -3.42780000       1.69350000
