19
Properties=species:S:1:pos:R:3 gdb_98326=T pbc="F F F"
C        0.12300000       1.56930000      -0.20160000
C        0.03830000       0.05510000      -0.01320000
C        0.75860000      -0.39840000       1.25450000
O        1.30460000       0.39980000       1.99620000
N        0.76990000      -1.75300000       1.52980000
C        0.19170000      -2.80160000       0.70660000
C        1.47230000      -2.18630000       2.72580000
C        0.57910000      -2.83870000       3.69440000
N       -0.12830000      -3.36970000       4.43780000
H        1.16250000       1.89590000      -0.27790000
H       -0.40500000       1.86640000      -1.11200000
H       -0.32090000       2.09300000       0.64770000
H       -1.01000000      -0.26440000       0.03830000
H        0.46950000      -0.46280000      -0.87860000
H       -0.38520000      -2.37790000      -0.11140000
H        0.97420000      -3.44470000       0.28160000
H       -0.47750000      -3.42930000       1.30600000
H        2.27670000      -2.88980000       2.47200000
H        1.91800000      -1.29600000       3.17640000
