17
Properties=species:S:1:pos:R:3 gdb_55253=T pbc="F F F"
O        0.12820000       0.17170000       0.78410000
C        0.00890000       1.42080000       0.30740000
O        0.94640000       2.16100000       0.17180000
C       -1.43260000       1.81680000      -0.02740000
C       -1.57960000       2.54430000      -1.39040000
C       -2.91440000       1.99050000      -1.92490000
C       -3.07410000       0.73000000      -1.09430000
N       -4.04620000      -0.17770000      -1.38880000
H       -4.39000000      -0.22230000      -2.33320000
H       -4.01920000      -1.05240000      -0.88780000
N       -2.29440000       0.63120000      -0.07960000
H       -1.76000000       2.46920000       0.79610000
H       -1.57130000       3.62990000      -1.29070000
H       -0.75020000       2.27120000      -2.04760000
H       -3.75740000       2.66450000      -1.72930000
H       -2.91170000       1.78530000      -3.00040000
H       -0.76920000      -0.21650000       0.73320000
