19
Properties=species:S:1:pos:R:3 gdb_38597=T pbc="F F F"
C       -0.04320000       1.51120000       0.06640000
C        1.50580000       1.52160000      -0.00020000
C        2.07680000       1.32920000       1.41990000
C        1.83080000      -0.15030000       1.67230000
C        0.44140000      -0.76930000       1.28480000
O        1.14640000      -1.91650000       0.71500000
C        2.16590000      -0.93080000       0.38480000
C        1.46640000       0.05550000      -0.59330000
C        0.01710000      -0.02860000      -0.00390000
H       -0.51000000       1.97520000       0.94250000
H       -0.50150000       1.92760000      -0.83490000
H        1.98350000       2.32110000      -0.56830000
H        3.15620000       1.52310000       1.45020000
H        1.60470000       1.99720000       2.14830000
H        2.23400000      -0.58300000       2.58730000
H       -0.31990000      -1.03770000       2.01800000
H        3.14110000      -1.35480000       0.14650000
H        1.61090000      -0.07700000      -1.66310000
H       -0.76360000      -0.57220000      -0.53740000
