18
Properties=species:S:1:pos:R:3 gdb_6491=T pbc="F F F"
C        0.01930000       1.66060000      -0.09410000
C       -0.21500000       0.16390000      -0.07440000
C       -1.57260000      -0.27360000       0.46400000
C       -1.73040000      -0.01320000       1.96720000
N       -0.84790000      -0.71740000       2.73390000
O       -2.57770000       0.72880000       2.42600000
C        0.47710000      -0.68800000      -1.07530000
N        0.90130000      -0.71740000       0.33980000
H        1.01630000       1.90010000      -0.47840000
H       -0.71680000       2.16200000      -0.73120000
H       -0.07420000       2.08600000       0.91080000
H       -2.37510000       0.26630000      -0.04320000
H       -1.70530000      -1.34440000       0.27880000
H       -0.05230000      -1.15590000       2.28970000
H       -0.82070000      -0.51550000       3.72030000
H        0.00920000      -1.60090000      -1.43300000
H        1.13290000      -0.20560000      -1.79540000
H        1.75040000      -0.16950000       0.45430000
