21
Properties=species:S:1:pos:R:3 gdb_96162=T pbc="F F F"
C        0.04430000       1.57640000      -0.03620000
C       -0.02380000       0.04370000       0.01320000
C        0.68760000      -0.52670000      -1.22980000
O        0.56920000      -1.92110000      -1.44570000
C        1.30970000      -2.73370000      -0.55180000
C        0.53360000      -3.02450000       0.72240000
O        1.21380000      -2.85540000       1.97260000
C        0.17890000      -1.92600000       1.62860000
C        0.57300000      -0.49030000       1.33270000
H        1.08150000       1.92740000       0.02280000
H       -0.38710000       1.96690000      -0.96360000
H       -0.50230000       2.02060000       0.80110000
H       -1.07760000      -0.26140000      -0.04280000
H        0.26140000      -0.06390000      -2.12650000
H        1.75490000      -0.24510000      -1.18810000
H        1.52140000      -3.66440000      -1.08800000
H        2.27040000      -2.26770000      -0.28990000
H       -0.12410000      -3.89330000       0.68840000
H       -0.72940000      -2.04820000       2.22030000
H        1.66660000      -0.42430000       1.29960000
H        0.25070000       0.14610000       2.16480000
