18
Properties=species:S:1:pos:R:3 gdb_34253=T pbc="F F F"
C        0.06370000      -1.18960000      -0.06900000
C        0.03100000       0.01290000      -0.02020000
C       -0.03230000       1.43120000       0.06030000
C       -1.20690000       2.26650000       0.57330000
N       -0.82120000       3.39520000      -0.34830000
C        0.01480000       4.36140000       0.39620000
C        1.24150000       3.56100000       0.93050000
C        1.22080000       2.33090000       0.02800000
C        0.16200000       2.49460000      -1.01560000
H        0.09500000      -2.24960000      -0.11660000
H       -2.17230000       1.84570000       0.28200000
H       -1.22800000       2.52200000       1.63900000
H        0.33870000       5.14060000      -0.30150000
H       -0.57530000       4.83710000       1.18420000
H        2.17810000       4.11570000       0.81960000
H        1.14150000       3.30220000       1.98920000
H        2.13650000       1.81080000      -0.22620000
H        0.25780000       2.41640000      -2.09070000
