14
Properties=species:S:1:pos:R:3 gdb_14664=T pbc="F F F"
O       -0.01480000       1.46250000       0.01020000
C       -0.00420000       0.04110000       0.00230000
C       -1.37100000      -0.45890000       0.01270000
C       -2.49420000      -0.90800000       0.02100000
C       -3.75830000      -1.40820000       0.03040000
C       -4.88150000      -1.85730000       0.03870000
C       -6.24820000      -2.35760000       0.04900000
O       -6.23740000      -3.77900000       0.04140000
H        0.90240000       1.75540000       0.00350000
H        0.51120000      -0.35190000      -0.88990000
H        0.52820000      -0.36160000       0.88000000
H       -6.76380000      -1.96450000       0.94110000
H       -6.78060000      -1.95520000      -0.82880000
H       -7.15450000      -4.07210000       0.04800000
