25
Properties=species:S:1:pos:R:3 gdb_76338=T pbc="F F F"
C        0.79650000       1.59300000      -0.07710000
C        0.18360000       0.21340000       0.15420000
C        0.71410000      -0.91270000      -0.78920000
O        1.36580000      -0.56700000      -1.98930000
C        1.53730000      -1.52490000       0.38860000
C        3.04510000      -1.29440000       0.31220000
C        0.70070000      -0.63070000       1.38000000
C        1.45810000       0.10780000       2.48270000
C       -0.44490000      -1.43880000       2.00300000
H        1.89190000       1.58820000      -0.05750000
H        0.48720000       1.98420000      -1.05160000
H        0.46820000       2.30320000       0.68820000
H       -0.90690000       0.31920000       0.13710000
H       -0.09270000      -1.58250000      -1.09700000
H        2.09320000       0.02750000      -1.78140000
H        1.36470000      -2.59760000       0.53030000
H        3.31550000      -0.23990000       0.18900000
H        3.54390000      -1.64620000       1.22060000
H        3.46770000      -1.84290000      -0.53570000
H        2.29070000       0.70510000       2.10350000
H        0.78810000       0.78400000       3.02630000
H        1.86640000      -0.60050000       3.21300000
H       -0.06210000      -2.17270000       2.72190000
H       -1.14430000      -0.78310000       2.53460000
H       -1.01550000      -1.98550000       1.24460000
