21
Properties=species:S:1:pos:R:3 gdb_64129=T pbc="F F F"
C       -0.02030000       1.52440000       0.09590000
C       -0.02210000      -0.00200000      -0.03150000
C       -1.44440000      -0.56100000       0.04210000
C        0.74370000      -0.48770000      -1.28820000
C        2.14240000      -0.81810000      -0.75380000
C        1.81020000      -1.33580000       0.65910000
O        0.73150000      -0.51700000       1.09880000
C        1.45700000      -2.76320000       0.66400000
C        1.17410000      -3.93190000       0.66160000
H        0.99250000       1.92500000      -0.01030000
H       -0.65530000       1.98150000      -0.67010000
H       -0.39900000       1.81850000       1.07890000
H       -2.04040000      -0.21900000      -0.81110000
H       -1.42310000      -1.65400000       0.03680000
H       -1.93980000      -0.23160000       0.96030000
H        0.27500000      -1.39020000      -1.69180000
H        0.75520000       0.26660000      -2.07850000
H        2.68420000      -1.54720000      -1.35850000
H        2.75430000       0.08470000      -0.66490000
H        2.63940000      -1.17810000       1.35830000
H        0.92330000      -4.96390000       0.67080000
