17
Properties=species:S:1:pos:R:3 gdb_127479=T pbc="F F F"
C        0.02860000       1.40010000      -0.08520000
N        0.08580000      -0.03590000       0.01050000
N       -0.00660000      -0.80400000      -1.11990000
C        0.03740000      -2.05700000      -0.68240000
N        0.06610000      -3.15310000      -1.55030000
C        0.13170000      -2.11010000       0.72630000
O        0.14700000      -3.21160000       1.55390000
C        0.14670000      -0.78940000       1.13690000
N        0.28770000      -0.24100000       2.41650000
H        0.57320000       1.83640000       0.75600000
H        0.50220000       1.70060000      -1.02120000
H       -1.00260000       1.77760000      -0.07920000
H       -0.17210000      -2.87180000      -2.49390000
H       -0.55360000      -3.89480000      -1.24590000
H        0.93810000      -3.72700000       1.35870000
H        0.40160000      -0.99060000       3.08990000
H       -0.50950000       0.32060000       2.69850000
