18
Properties=species:S:1:pos:R:3 gdb_14527=T pbc="F F F"
C        0.37450000       1.39270000       0.79290000
C       -0.03140000       0.13590000       0.05460000
C        0.56510000      -0.21010000      -1.24250000
O        0.98020000      -0.87090000      -0.04000000
C       -1.40520000      -0.39370000       0.41040000
C       -2.63250000       0.43750000      -0.03610000
C       -3.05770000      -0.85750000      -0.75470000
O       -1.82510000      -1.51700000      -0.39190000
H        1.39630000       1.67250000       0.52670000
H       -0.29020000       2.22980000       0.55460000
H        0.33810000       1.23160000       1.87620000
H        0.00620000      -0.83530000      -1.93390000
H        1.30380000       0.45640000      -1.68680000
H       -1.41310000      -0.65750000       1.47850000
H       -3.29090000       0.79310000       0.75690000
H       -2.38950000       1.26610000      -0.70440000
H       -3.92910000      -1.36420000      -0.32180000
H       -3.18640000      -0.79700000      -1.84140000
