17
Properties=species:S:1:pos:R:3 gdb_2177=T pbc="F F F"
C       -0.49200000       1.43100000       0.05270000
C        0.13980000       0.04280000       0.01230000
C        1.20580000      -0.15930000      -1.07300000
O        1.96480000      -1.29900000      -0.67360000
C        1.78340000      -1.52480000       0.72080000
C        0.93390000      -0.36700000       1.26450000
O        1.72550000       0.74740000       1.65820000
H        0.26360000       2.19410000       0.25050000
H       -0.97950000       1.66280000      -0.90000000
H       -1.25120000       1.49670000       0.83850000
H       -0.64090000      -0.71490000      -0.13200000
H        0.78070000      -0.35790000      -2.06230000
H        1.85390000       0.72680000      -1.14350000
H        1.27880000      -2.49010000       0.87580000
H        2.76120000      -1.57220000       1.22020000
H        0.28160000      -0.69120000       2.08790000
H        2.33770000       0.45600000       2.34040000
