17
Properties=species:S:1:pos:R:3 gdb_45372=T pbc="F F F"
O        0.06200000       0.07120000       0.72310000
C        0.01010000       1.12750000       0.15860000
C       -1.31790000       1.83370000      -0.13630000
C       -1.19930000       3.10520000      -0.98980000
C       -0.72630000       2.78210000      -2.41530000
O        0.70560000       2.64590000      -2.31220000
C        1.09050000       2.95220000      -1.00280000
C        0.01520000       3.89440000      -0.47330000
O        1.16220000       1.75780000      -0.19540000
H       -1.98200000       1.09130000      -0.58900000
H       -1.74940000       2.07140000       0.84290000
H       -2.13500000       3.66780000      -0.98650000
H       -1.14660000       1.85160000      -2.81080000
H       -0.95410000       3.59430000      -3.11630000
H        2.11350000       3.32690000      -1.01610000
H        0.10620000       4.87450000      -0.94970000
H        0.04730000       4.01500000       0.61120000
