19
Properties=species:S:1:pos:R:3 gdb_38210=T pbc="F F F"
C       -0.01530000       1.65390000       0.21890000
C        1.43650000       1.18030000       0.04860000
O        1.11080000       0.00400000       0.91380000
C       -0.00470000       0.11770000      -0.07190000
C       -1.11850000      -0.80700000      -0.32880000
C       -1.38780000      -1.05590000      -1.61710000
C       -0.60370000      -0.52650000      -2.80850000
C        0.39450000       0.63130000      -2.51300000
C        1.04030000       0.30090000      -1.17780000
H       -0.29070000       1.92480000       1.23840000
H       -0.45150000       2.32080000      -0.52720000
H        2.36900000       1.69940000       0.27210000
H       -1.72790000      -1.20530000       0.47640000
H       -2.23040000      -1.69700000      -1.86820000
H       -0.05940000      -1.37490000      -3.24970000
H       -1.31270000      -0.21200000      -3.58400000
H        1.11980000       0.71230000      -3.32910000
H       -0.15010000       1.57970000      -2.47660000
H        1.68950000      -0.57680000      -1.24920000
