15
Properties=species:S:1:pos:R:3 gdb_3360=T pbc="F F F"
C        0.10230000       1.40450000       0.36280000
O        1.50280000       1.45990000       0.00720000
C        1.45340000       0.15160000      -0.61000000
C        2.22970000      -0.90970000       0.16090000
C        1.28860000      -1.20410000       1.34030000
O       -0.03410000      -1.06580000       0.81350000
C       -0.01690000      -0.04460000      -0.15840000
H       -0.06650000       1.53180000       1.43820000
H       -0.48730000       2.14540000      -0.19170000
H        1.68340000       0.19730000      -1.67860000
H        2.35650000      -1.79920000      -0.46540000
H        3.21400000      -0.55290000       0.47250000
H        1.37860000      -2.21560000       1.74290000
H        1.45810000      -0.48790000       2.15660000
H       -0.80060000      -0.24890000      -0.88880000
