19
Properties=species:S:1:pos:R:3 gdb_118734=T pbc="F F F"
C       -0.08140000       1.80030000      -0.30720000
C       -0.01710000       0.28800000      -0.17400000
C       -1.37040000      -0.40710000      -0.07120000
C       -2.22250000       0.02900000       1.12750000
O       -3.43460000      -0.70190000       1.20920000
C        1.01400000      -0.41680000      -1.08720000
C        1.74550000      -0.71070000       0.22020000
O        2.73740000      -1.26500000       0.57010000
O        0.82170000      -0.07490000       1.00510000
H        0.92370000       2.22060000      -0.40000000
H       -0.65690000       2.07890000      -1.19600000
H       -0.55660000       2.25550000       0.56540000
H       -1.93310000      -0.23630000      -0.99670000
H       -1.19600000      -1.48880000       0.00010000
H       -1.63060000      -0.05650000       2.04990000
H       -2.52130000       1.07660000       1.02560000
H       -3.21820000      -1.60910000       1.44710000
H        0.66440000      -1.30450000      -1.61730000
H        1.56600000       0.22750000      -1.77380000
