22
Properties=species:S:1:pos:R:3 gdb_119115=T pbc="F F F"
C        1.79800000       1.83230000       1.22390000
C        1.01240000       0.59070000       0.79480000
C        1.38730000      -0.65400000       1.61300000
C        0.60630000      -1.89690000       1.22540000
C        0.21660000      -2.86160000       2.30650000
N       -0.80400000      -2.04530000       1.65170000
C        0.92840000      -2.46810000      -0.13840000
C       -0.09330000      -3.37450000      -0.79460000
O        1.97800000      -2.18870000      -0.67820000
H        2.87560000       1.67700000       1.10290000
H        1.51840000       2.70570000       0.62680000
H        1.61550000       2.07680000       2.27670000
H       -0.06410000       0.78400000       0.89250000
H        1.19760000       0.38650000      -0.26500000
H        2.45420000      -0.86240000       1.48230000
H        1.22630000      -0.45430000       2.68090000
H        0.15860000      -3.92730000       2.10400000
H        0.53400000      -2.61120000       3.31550000
H       -1.05910000      -1.25860000       2.24450000
H       -1.00420000      -2.80480000      -1.00280000
H        0.32580000      -3.76930000      -1.72060000
H       -0.39370000      -4.19620000      -0.13810000
