23
Properties=species:S:1:pos:R:3 gdb_116182=T pbc="F F F"
C        0.23600000       1.52350000      -0.29480000
C        0.02580000       0.02400000      -0.01610000
C       -1.46440000      -0.28280000       0.15720000
C        0.66510000      -0.80000000      -1.15030000
O        2.05900000      -0.78850000      -0.89770000
C        2.25580000      -0.80810000       0.51810000
C        0.88890000      -0.49300000       1.17180000
C        0.99750000       0.41360000       2.38790000
O        1.72800000      -0.30370000       3.37610000
H        1.29090000       1.75100000      -0.47250000
H       -0.32360000       1.82250000      -1.18790000
H       -0.11650000       2.14630000       0.53350000
H       -2.03180000       0.00770000      -0.73420000
H       -1.63420000      -1.35090000       0.33030000
H       -1.88880000       0.26550000       1.00520000
H        0.26800000      -1.83010000      -1.14540000
H        0.49790000      -0.37380000      -2.14480000
H        2.63810000      -1.78600000       0.83590000
H        3.01570000      -0.05750000       0.76700000
H        0.44410000      -1.43210000       1.52260000
H        1.51370000       1.34800000       2.12120000
H       -0.00650000       0.68130000       2.75560000
H        1.86680000       0.27720000       4.12970000
