19
Properties=species:S:1:pos:R:3 gdb_32944=T pbc="F F F"
C        1.18840000       0.75440000      -0.48030000
N       -0.04620000       0.17260000       0.03850000
C       -0.67380000      -0.79660000      -0.85810000
C        0.14130000      -2.01740000      -1.16910000
N        0.65730000      -2.39380000      -2.29550000
C        1.32980000      -3.57370000      -1.99530000
C        1.19210000      -3.85680000      -0.67760000
C        1.66170000      -4.94040000       0.22040000
O        0.42400000      -2.85770000      -0.13180000
H        1.97180000       0.02360000      -0.73950000
H        0.96260000       1.32880000      -1.38560000
H        1.59570000       1.44700000       0.26180000
H        0.13320000      -0.27170000       0.93300000
H       -1.62650000      -1.10320000      -0.41070000
H       -0.89520000      -0.31010000      -1.81250000
H        1.86440000      -4.13130000      -2.74830000
H        2.25380000      -5.65970000      -0.34980000
H        2.28630000      -4.54980000       1.03180000
H        0.82260000      -5.47490000       0.67970000
