23
Properties=species:S:1:pos:R:3 gdb_63807=T pbc="F F F"
C       -0.06870000       1.54050000      -0.02110000
C       -0.00800000       0.00660000      -0.01120000
C       -1.42730000      -0.57300000      -0.08990000
C        0.93130000      -0.56080000      -1.12950000
C        1.98420000      -1.26530000      -0.27780000
C        1.28110000      -1.96960000       0.92960000
C        2.52110000      -1.67820000       1.80510000
C        2.29640000      -0.39000000       0.98090000
C        0.75620000      -0.52450000       1.21460000
H        0.93140000       1.98250000       0.03450000
H       -0.54510000       1.90950000      -0.93650000
H       -0.64830000       1.91870000       0.82900000
H       -1.93370000      -0.25060000      -1.00680000
H       -1.41510000      -1.66780000      -0.08430000
H       -2.03720000      -0.24180000       0.75870000
H        0.40910000      -1.25290000      -1.79920000
H        1.36320000       0.23130000      -1.75090000
H        2.80890000      -1.77920000      -0.77720000
H        0.68990000      -2.88720000       0.89540000
H        2.35790000      -1.60840000       2.88480000
H        3.42570000      -2.25250000       1.58280000
H        2.88590000       0.52900000       1.00650000
H        0.35180000      -0.29680000       2.20490000
