14
Properties=species:S:1:pos:R:3 gdb_129481=T pbc="F F F"
N        0.14840000       1.23160000      -0.27280000
C       -0.01710000       0.02260000       0.32310000
O        0.65880000      -0.37300000       1.24910000
C       -1.20690000      -0.78780000      -0.21860000
N       -0.98390000      -2.21250000      -0.11710000
C       -0.62990000      -2.99520000       0.91960000
N       -0.56750000      -4.24260000       0.50750000
N       -0.88950000      -4.21030000      -0.81380000
N       -1.14070000      -3.00820000      -1.20360000
H        0.90620000       1.81500000       0.04520000
H       -0.32690000       1.48600000      -1.12110000
H       -2.09270000      -0.50270000       0.36130000
H       -1.41310000      -0.58340000      -1.27070000
H       -0.41390000      -2.62160000       1.90470000
