20
Properties=species:S:1:pos:R:3 gdb_101775=T pbc="F F F"
C        0.41510000       1.43560000      -0.23470000
C        0.28030000      -0.07970000      -0.08190000
C       -0.08000000      -0.49850000       1.35140000
O       -1.26670000       0.09480000       1.83110000
O       -0.58910000      -0.66320000      -1.06920000
C       -1.92270000      -0.20690000      -1.16370000
C       -2.88200000      -1.30050000      -0.67200000
N       -3.60170000      -1.92230000      -1.63630000
O       -2.99520000      -1.59530000       0.51100000
H        1.27480000       1.78610000       0.34510000
H        0.57560000       1.70550000      -1.28230000
H       -0.46490000       1.95890000       0.14650000
H        1.24410000      -0.54680000      -0.32050000
H       -0.13560000      -1.59520000       1.38980000
H        0.74250000      -0.18520000       2.00890000
H       -1.99690000      -0.48560000       1.54880000
H       -2.11040000       0.68500000      -0.56090000
H       -2.12840000       0.03730000      -2.21520000
H       -3.42820000      -1.76120000      -2.61280000
H       -4.19730000      -2.69100000      -1.37170000
