13
Properties=species:S:1:pos:R:3 gdb_130513=T pbc="F F F"
O       -0.07230000       1.32610000       0.01020000
N        1.05070000       2.11560000       0.00340000
C        2.20990000       1.52100000      -0.01130000
C        2.44720000       0.10770000      -0.02120000
C        1.35220000      -0.68580000      -0.01470000
C        1.01810000      -2.07950000      -0.01900000
N       -0.28760000      -2.23940000      -0.00690000
C       -0.91150000      -0.98800000       0.00600000
C        0.03970000      -0.01770000       0.00180000
H        3.03680000       2.22330000      -0.01560000
H        3.46520000      -0.26620000      -0.03330000
H        1.70310000      -2.91640000      -0.03030000
H       -1.98590000      -0.90200000       0.01710000
