21
Properties=species:S:1:pos:R:3 gdb_120387=T pbc="F F F"
C       -0.55180000       1.40820000       0.09700000
C        0.02350000      -0.00070000       0.05260000
C        0.60600000      -0.64190000      -1.26370000
C        0.98280000       0.34790000      -2.36350000
C        1.58450000      -0.32990000      -3.58900000
O        1.89330000       0.68160000      -4.53480000
C        1.82360000      -1.18990000      -0.44560000
C        1.39040000      -0.26470000       0.70250000
O        1.94180000       0.17800000       1.66860000
H        0.13140000       2.13900000      -0.34430000
H       -1.50550000       1.46840000      -0.43680000
H       -0.72570000       1.70450000       1.13560000
H       -0.69110000      -0.70630000       0.49830000
H       -0.03610000      -1.42490000      -1.67700000
H        0.09930000       0.91140000      -2.68510000
H        1.70370000       1.08580000      -1.98870000
H        2.48530000      -0.89700000      -3.30350000
H        0.86280000      -1.05550000      -4.00010000
H        2.29180000       0.26450000      -5.30400000
H        1.73630000      -2.24650000      -0.17320000
H        2.82670000      -1.01570000      -0.84470000
