15
Properties=species:S:1:pos:R:3 gdb_28043=T pbc="F F F"
O        0.19660000       1.36400000      -0.08100000
C        0.09710000       0.01740000      -0.06860000
C        0.26220000      -0.83280000      -1.13200000
N        0.05550000      -2.09760000      -0.59630000
C        0.10640000      -3.35940000      -1.31760000
C        1.43090000      -3.67760000      -1.84710000
C        2.51220000      -3.94290000      -2.29620000
C       -0.21260000      -1.93400000       0.72320000
N       -0.19800000      -0.66350000       1.07730000
H        0.02830000       1.65250000       0.82430000
H        0.51110000      -0.67620000      -2.16610000
H       -0.22040000      -4.14300000      -0.62600000
H       -0.62300000      -3.33730000      -2.13710000
H        3.47230000      -4.17570000      -2.68660000
H       -0.41340000      -2.77100000       1.37530000
