25
Properties=species:S:1:pos:R:3 gdb_112741=T pbc="F F F"
C       -1.30360000       2.49390000      -1.58770000
C       -0.90540000       1.29050000      -0.72670000
C       -1.76760000       0.06120000      -0.98620000
C       -1.61380000      -0.67830000      -2.34990000
C       -1.66390000      -2.04480000      -1.60460000
C       -0.69210000      -3.13620000      -2.02700000
C       -1.42550000      -1.27190000      -0.29250000
C       -0.29050000      -1.49730000       0.66850000
C       -1.72260000      -1.70060000       1.11080000
H       -0.66180000       3.35750000      -1.38730000
H       -1.22400000       2.26060000      -2.65500000
H       -2.33890000       2.79480000      -1.39220000
H        0.14590000       1.03550000      -0.91260000
H       -0.97070000       1.56650000       0.33480000
H       -2.82190000       0.31410000      -0.81040000
H       -2.37240000      -0.49640000      -3.11500000
H       -0.62550000      -0.49980000      -2.78870000
H       -2.68720000      -2.44070000      -1.61810000
H        0.33880000      -2.76600000      -2.03450000
H       -0.73360000      -3.99890000      -1.35180000
H       -0.92550000      -3.49750000      -3.03480000
H        0.33240000      -2.37630000       0.53620000
H        0.24310000      -0.63260000       1.04960000
H       -2.15620000      -0.97240000       1.79030000
H       -2.06670000      -2.71780000       1.27420000
