21
Properties=species:S:1:pos:R:3 gdb_118672=T pbc="F F F"
C       -0.02010000       1.42420000      -0.01340000
O       -0.01230000       0.01560000      -0.01080000
C        0.58900000      -0.53960000      -1.15850000
C        0.57290000      -2.05740000      -1.00670000
C        1.24210000      -2.74360000      -2.21640000
C        0.99290000      -4.24690000      -2.27090000
O        1.67470000      -4.74410000      -3.41240000
C        1.30790000      -2.44910000       0.26490000
O        0.97240000      -3.32810000       1.01450000
H        0.99990000       1.83800000      -0.05020000
H       -0.58470000       1.82610000      -0.86910000
H       -0.50110000       1.74940000       0.91190000
H        0.05000000      -0.24020000      -2.07220000
H        1.62850000      -0.17880000      -1.26350000
H       -0.46280000      -2.40000000      -0.90730000
H        0.86720000      -2.29380000      -3.14310000
H        2.32540000      -2.56740000      -2.20270000
H        1.35010000      -4.72460000      -1.34720000
H       -0.09060000      -4.43710000      -2.33620000
H        1.56820000      -5.69950000      -3.43230000
H        2.24710000      -1.87100000       0.43930000
