17
Properties=species:S:1:pos:R:3 gdb_53051=T pbc="F F F"
C        0.04050000       1.51460000      -0.09280000
C        0.00200000       0.06220000      -0.03000000
C       -0.03030000      -1.14070000       0.03100000
C       -0.06270000      -2.57510000       0.08460000
C        0.53470000      -3.41830000      -1.06520000
O       -0.61850000      -4.29550000      -1.07490000
C       -1.28530000      -3.53300000      -0.06070000
C       -0.93950000      -3.98380000       1.36100000
O        0.24560000      -3.14600000       1.38210000
H        0.71480000       1.86190000      -0.88320000
H       -0.95330000       1.92900000      -0.29480000
H        0.39070000       1.93770000       0.85490000
H        0.63880000      -2.88530000      -2.01710000
H        1.46450000      -3.93590000      -0.80860000
H       -2.30870000      -3.26090000      -0.32220000
H       -1.65640000      -3.67240000       2.13120000
H       -0.70790000      -5.04840000       1.46720000
