13
Properties=species:S:1:pos:R:3 gdb_3488=T pbc="F F F"
C        0.01870000       1.53280000       0.03310000
C        1.55320000       1.64110000      -0.02990000
O        1.93900000       1.01190000       1.22940000
C        1.52410000      -0.20880000       0.62110000
C        0.06720000      -0.00520000      -0.01870000
O        0.62910000      -0.23190000      -1.34670000
C        1.84750000       0.26320000      -0.79660000
H       -0.36200000       1.95680000       0.96390000
H       -0.51360000       1.93310000      -0.83150000
H        2.04830000       2.58990000      -0.22360000
H        1.81190000      -1.12990000       1.12340000
H       -0.80970000      -0.60920000       0.20280000
H        2.74960000       0.10980000      -1.38520000
