16
Properties=species:S:1:pos:R:3 gdb_75983=T pbc="F F F"
O        0.16810000       1.31840000       0.31790000
C       -0.02790000      -0.01720000       0.00220000
C       -1.49810000      -0.42330000      -0.06540000
O       -2.41770000       0.32140000       0.14570000
C       -1.65060000      -1.88510000      -0.47000000
C       -1.04090000      -2.10030000      -1.86450000
N        0.28410000      -1.48880000      -1.97500000
C        0.68710000      -0.36400000      -1.32320000
O        1.60520000       0.34300000      -1.69820000
H        0.91770000       1.59830000      -0.23250000
H        0.43160000      -0.68800000       0.75570000
H       -1.12980000      -2.51780000       0.25790000
H       -2.70840000      -2.15220000      -0.47570000
H       -0.94790000      -3.17030000      -2.07260000
H       -1.71580000      -1.67600000      -2.62070000
H        0.78880000      -1.65110000      -2.83660000
