19
Properties=species:S:1:pos:R:3 gdb_54723=T pbc="F F F"
C        0.59950000       0.53540000       1.31760000
C        0.08810000       0.14570000      -0.05810000
O        0.52250000       0.63350000      -1.07570000
C       -1.07860000      -0.82360000      -0.06620000
C       -1.35900000      -2.00680000      -0.94590000
C       -0.19540000      -3.01680000      -1.14400000
C        1.08160000      -2.66250000      -0.43870000
C       -0.07870000      -3.18580000       0.36360000
C       -1.24530000      -2.17960000       0.57110000
H        1.36550000       1.30700000       1.22880000
H       -0.22760000       0.90070000       1.93720000
H        1.00850000      -0.34270000       1.82870000
H       -1.99180000      -0.24070000       0.07990000
H       -2.25640000      -2.05610000      -1.54960000
H       -0.23760000      -3.78590000      -1.90380000
H        1.87470000      -3.39210000      -0.57900000
H        1.44970000      -1.64720000      -0.37450000
H       -0.01370000      -4.10420000       0.93240000
H       -2.04200000      -2.37810000       1.27740000
