17
Properties=species:S:1:pos:R:3 gdb_128667=T pbc="F F F"
C       -0.01500000       1.38360000       0.17910000
O        0.00760000      -0.03630000       0.07370000
C       -1.18690000      -0.63140000      -0.07740000
N       -2.33840000       0.05280000      -0.07930000
N       -3.23890000      -0.95640000      -0.15110000
C       -4.56890000      -1.30340000      -0.67550000
C       -4.03760000      -2.79350000      -0.69030000
C       -2.70330000      -2.18280000      -0.28450000
C       -1.33410000      -2.04700000      -0.22990000
H        1.02530000       1.69240000       0.29260000
H       -0.44790000       1.83790000      -0.71860000
H       -0.60300000       1.70290000       1.04570000
H       -5.39740000      -1.06770000      -0.00250000
H       -4.76690000      -0.89840000      -1.67210000
H       -4.50740000      -3.45970000       0.03660000
H       -4.05590000      -3.26280000      -1.67610000
H       -0.54690000      -2.77910000      -0.27360000
