19
Properties=species:S:1:pos:R:3 gdb_93876=T pbc="F F F"
C       -0.39640000       1.49150000      -0.01610000
C       -0.04100000       0.02130000       0.10830000
O        0.53360000      -0.42860000      -1.11860000
C        1.47990000      -1.46480000      -0.87530000
C        1.47930000      -1.73770000       0.64800000
N        2.70210000      -2.21180000       1.26660000
C        0.98560000      -0.37070000       1.19860000
C        2.09090000       0.58060000       1.30730000
N        2.98170000       1.31420000       1.38080000
H        0.49830000       2.09510000      -0.18750000
H       -1.07750000       1.63170000      -0.85950000
H       -0.89460000       1.84620000       0.89150000
H       -0.95580000      -0.55720000       0.32030000
H        1.21190000      -2.35920000      -1.45150000
H        2.47510000      -1.13200000      -1.20230000
H        0.69210000      -2.46360000       0.87990000
H        2.93380000      -3.14020000       0.92950000
H        3.48160000      -1.60280000       1.03150000
H        0.52060000      -0.47900000       2.18150000
