18
Properties=species:S:1:pos:R:3 gdb_47031=T pbc="F F F"
N       -0.04760000       0.72210000       1.22910000
C        0.07940000       0.04390000       0.16810000
C       -1.07790000      -0.21210000      -0.76780000
C       -1.14730000      -1.69760000      -1.13420000
O       -1.56360000      -1.94930000      -2.49700000
C       -0.37330000      -2.72210000      -2.76270000
C        0.23440000      -2.33790000      -1.39870000
C        1.31700000      -1.26650000      -1.41010000
O        1.27840000      -0.51250000      -0.19060000
H        0.85080000       0.78470000       1.71380000
H       -1.98830000       0.15720000      -0.29710000
H       -0.92650000       0.35080000      -1.69640000
H       -1.77340000      -2.24940000      -0.42330000
H       -0.59510000      -3.79020000      -2.87800000
H        0.15540000      -2.37070000      -3.65750000
H        0.51010000      -3.16350000      -0.74090000
H        2.32360000      -1.68710000      -1.45950000
H        1.18990000      -0.59450000      -2.26940000
