18
Properties=species:S:1:pos:R:3 gdb_26948=T pbc="F F F"
C        0.17920000       1.51560000      -0.24320000
C       -0.03870000       0.05540000      -0.09390000
C       -1.11720000      -0.74620000       0.11970000
N       -0.68650000      -2.07540000       0.17080000
C        0.58880000      -2.00760000      -0.00900000
O        1.07080000      -0.75930000      -0.17780000
C       -2.53680000      -0.39240000       0.28370000
C       -3.61170000      -1.31600000      -0.25450000
C       -3.41020000      -1.19470000       1.22800000
H        0.85490000       1.90370000       0.52770000
H        0.61680000       1.76120000      -1.21760000
H       -0.77210000       2.04510000      -0.15670000
H        1.30450000      -2.81450000      -0.04000000
H       -2.74310000       0.67110000       0.22470000
H       -4.48960000      -0.86240000      -0.70120000
H       -3.27100000      -2.22760000      -0.73130000
H       -2.93560000      -2.02570000       1.73650000
H       -4.14790000      -0.65660000       1.81310000
