17
Properties=species:S:1:pos:R:3 gdb_89687=T pbc="F F F"
C       -0.09100000       1.53200000      -0.03310000
C        0.11590000       0.03480000       0.02650000
O        1.20690000      -0.44590000      -0.82050000
C        1.74540000      -1.21660000       0.23690000
C        2.19410000      -0.30610000       1.37500000
C        0.74240000      -0.63020000       1.25590000
O       -0.00100000      -1.25080000       2.22990000
C        2.22870000      -2.58570000       0.04050000
O        2.25510000      -3.16790000      -1.01580000
H        0.80590000       2.07540000       0.27650000
H       -0.34010000       1.83660000      -1.05400000
H       -0.92160000       1.82110000       0.61940000
H       -0.80170000      -0.50250000      -0.24350000
H        2.69610000      -0.82260000       2.18910000
H        2.59850000       0.66860000       1.11790000
H        0.20240000      -0.84880000       3.08100000
H        2.57630000      -3.05950000       0.98700000
