18
Properties=species:S:1:pos:R:3 gdb_72199=T pbc="F F F"
C       -0.00630000       1.45170000       0.02450000
C       -0.01320000      -0.05610000       0.00610000
C       -1.14620000      -0.77870000      -0.70940000
C       -0.69290000      -2.23030000      -0.65500000
O       -0.85190000      -2.72970000       0.70630000
C        0.49200000      -2.30980000       0.99330000
C        0.68800000      -0.78360000       1.10230000
N        1.28960000      -0.69880000      -0.30250000
C        0.86130000      -2.14240000      -0.47990000
H        0.91510000       1.83180000       0.47300000
H       -0.07480000       1.84790000      -0.99430000
H       -0.85560000       1.83700000       0.59850000
H       -2.11810000      -0.65130000      -0.22510000
H       -1.21780000      -0.41440000      -1.74190000
H       -1.13560000      -2.90580000      -1.38900000
H        1.00540000      -2.93320000       1.72570000
H        1.13940000      -0.25810000       1.93860000
H        1.53620000      -2.77100000      -1.05450000
