15
Properties=species:S:1:pos:R:3 gdb_26608=T pbc="F F F"
N       -0.01860000       1.40460000      -0.10320000
C        0.00370000       0.02650000      -0.03280000
C       -1.17170000      -0.68030000       0.04600000
N       -2.41740000      -0.01190000       0.11580000
C       -1.17980000      -2.11660000       0.12620000
O       -2.16030000      -2.81700000       0.24000000
O        0.07270000      -2.74450000       0.09360000
C        1.20900000      -2.03960000      -0.02500000
C        1.24180000      -0.69630000      -0.09130000
H        0.82980000       1.87460000       0.17540000
H       -0.85450000       1.81210000       0.29880000
H       -2.63030000       0.48570000      -0.74460000
H       -3.14580000      -0.70270000       0.27150000
H        2.08190000      -2.67940000      -0.06190000
H        2.18870000      -0.17980000      -0.18500000
