19
Properties=species:S:1:pos:R:3 gdb_10632=T pbc="F F F"
C       -0.37860000       1.51300000       0.16600000
C        0.21730000       0.13170000      -0.12320000
C        0.86410000      -0.49220000       1.10680000
N       -0.07890000      -1.06130000       2.10750000
C        0.82750000      -1.96910000       1.39530000
C        0.21470000      -3.00510000       0.48410000
C        2.01220000       0.21940000       1.61750000
C        2.96020000       0.82660000       2.04360000
H        0.39150000       2.21090000       0.50800000
H       -0.84270000       1.93230000      -0.73150000
H       -1.14350000       1.44190000       0.94530000
H       -0.56910000      -0.53650000      -0.48260000
H        0.97030000       0.20210000      -0.91720000
H        0.26200000      -0.87560000       3.04720000
H        1.69110000      -2.32800000       1.95330000
H       -0.69040000      -2.63410000       0.00040000
H        0.92600000      -3.31640000      -0.28810000
H       -0.06130000      -3.89240000       1.06420000
H        3.79970000       1.35770000       2.41870000
