22
Properties=species:S:1:pos:R:3 gdb_93774=T pbc="F F F"
C       -0.10010000       1.58480000      -0.12900000
C        0.01640000       0.05840000      -0.01180000
C        0.77530000      -0.53690000      -1.19650000
O        2.15710000      -0.15210000      -1.18310000
C        2.75320000      -0.09150000       0.04260000
C        4.22440000       0.16580000      -0.10410000
N        2.20110000      -0.21880000       1.17690000
C        0.75220000      -0.42750000       1.25860000
C        0.23940000       0.19180000       2.56030000
H        0.87850000       2.07000000      -0.07010000
H       -0.55260000       1.86210000      -1.08690000
H       -0.72600000       1.99810000       0.66560000
H       -0.99320000      -0.37170000      -0.01870000
H        0.71960000      -1.63340000      -1.18070000
H        0.38370000      -0.18720000      -2.15580000
H        4.39380000       1.08470000      -0.67450000
H        4.67930000       0.25340000       0.88160000
H        4.69920000      -0.64970000      -0.65950000
H        0.58680000      -1.51300000       1.33200000
H        0.43420000       1.26730000       2.59050000
H       -0.83750000       0.02870000       2.67740000
H        0.75620000      -0.26080000       3.41050000
