19
Properties=species:S:1:pos:R:3 gdb_38072=T pbc="F F F"
C       -0.00950000       1.49950000       0.07900000
C        1.33410000       0.78760000      -0.02660000
C        1.95230000       0.45580000       1.29670000
C        1.19050000      -0.39130000       2.02130000
C        0.04350000      -0.80270000       1.22600000
C       -0.87380000      -1.77690000       1.18490000
C       -1.61550000      -1.75220000      -0.13990000
C       -0.71910000      -0.85110000      -1.05320000
C        0.03580000      -0.00410000      -0.04040000
H       -0.27160000       1.96780000       1.02290000
H       -0.34570000       2.03130000      -0.80680000
H        1.95590000       0.96510000      -0.89750000
H        2.89380000       0.88210000       1.62500000
H        1.41360000      -0.74430000       3.02020000
H       -1.07200000      -2.50940000       1.95880000
H       -1.76560000      -2.75450000      -0.55700000
H       -2.61770000      -1.31260000      -0.02830000
H       -0.02940000      -1.48460000      -1.62280000
H       -1.30140000      -0.26410000      -1.76830000
