20
Properties=species:S:1:pos:R:3 gdb_40360=T pbc="F F F"
C        1.14330000       0.96300000       0.02260000
N        0.33690000       0.10980000      -0.86790000
C       -0.23300000       0.56620000       0.41030000
C       -0.50090000      -0.50110000       1.41600000
C       -1.67280000      -1.51750000       1.31680000
C       -0.85750000      -2.19010000       2.46330000
C        0.41910000      -1.71750000       1.69880000
C       -0.95050000      -1.09520000       3.53280000
O       -0.68960000       0.07640000       2.72670000
H        1.99560000       0.46670000       0.47680000
H        1.31590000       1.99910000      -0.25530000
H       -0.04020000       0.66250000      -1.63260000
H       -0.99350000       1.34460000       0.38250000
H       -2.67610000      -1.14540000       1.54080000
H       -1.65870000      -2.09030000       0.38890000
H       -1.01200000      -3.22220000       2.77490000
H        0.63040000      -2.30580000       0.80620000
H        1.32700000      -1.52900000       2.27790000
H       -1.94070000      -1.02000000       3.99820000
H       -0.19240000      -1.18600000       4.32000000
