19
Properties=species:S:1:pos:R:3 gdb_112343=T pbc="F F F"
C        0.04440000       1.54830000       0.04200000
C       -0.04390000       0.02260000      -0.04190000
C        0.69130000      -0.54390000      -1.26220000
O        2.07800000      -0.20480000      -1.19870000
C        2.85140000      -1.35630000      -1.24690000
N        4.11840000      -1.35670000      -1.20850000
C        1.95610000      -2.49810000      -1.34230000
C        0.68580000      -2.05510000      -1.36050000
N       -0.49200000      -2.73760000      -1.52050000
H        1.08830000       1.86780000       0.08760000
H       -0.41460000       2.01980000      -0.83390000
H       -0.46980000       1.92140000       0.93220000
H        0.38240000      -0.43630000       0.85760000
H       -1.09760000      -0.28450000      -0.09000000
H        0.27000000      -0.10100000      -2.17800000
H        4.46970000      -0.40100000      -1.14020000
H        2.31120000      -3.51590000      -1.39470000
H       -0.46300000      -3.73470000      -1.37190000
H       -1.32620000      -2.30440000      -1.15600000
