22
Properties=species:S:1:pos:R:3 gdb_100815=T pbc="F F F"
C        0.00710000       1.37230000       0.10100000
O       -0.03840000      -0.02850000      -0.04200000
C        0.66160000      -0.54310000      -1.16830000
C        2.16270000      -0.63070000      -0.87230000
C        0.00020000      -1.90070000      -1.48450000
C       -1.49190000      -1.73070000      -1.79360000
C        0.73400000      -2.61740000      -2.64430000
C        0.16100000      -3.92530000      -2.95640000
N       -0.29150000      -4.96210000      -3.19300000
H        1.02270000       1.74820000       0.29330000
H       -0.38640000       1.88420000      -0.79090000
H       -0.62080000       1.62630000       0.95850000
H        0.50130000       0.12980000      -2.03000000
H        2.35940000      -1.38040000      -0.09920000
H        2.74200000      -0.88450000      -1.76470000
H        2.53900000       0.33090000      -0.51280000
H        0.10610000      -2.52110000      -0.58560000
H       -1.98950000      -1.22150000      -0.96780000
H       -1.63630000      -1.13250000      -2.70180000
H       -1.97350000      -2.69930000      -1.95130000
H        0.69580000      -2.00070000      -3.55170000
H        1.79120000      -2.76820000      -2.40720000
