20
Properties=species:S:1:pos:R:3 gdb_23053=T pbc="F F F"
C       -0.11010000       1.40580000      -0.16350000
C        0.07550000      -0.08830000      -0.03120000
C        1.44540000      -0.70220000      -0.10200000
C        0.70640000      -0.67320000       1.21580000
C        1.08980000       0.03620000       2.53260000
C        0.55400000      -1.20650000       3.32280000
C        0.21840000      -1.84810000       1.98820000
N       -0.27520000      -2.94560000       1.59020000
O       -0.60190000      -3.77690000       2.68260000
H        0.72640000       1.95070000       0.28600000
H       -0.16930000       1.70070000      -1.21700000
H       -1.02980000       1.74090000       0.32860000
H       -0.73110000      -0.69200000      -0.43960000
H        1.56300000      -1.66980000      -0.57820000
H        2.29590000      -0.03400000      -0.20520000
H        2.15920000       0.22050000       2.65830000
H        0.54810000       0.96430000       2.73040000
H        1.29800000      -1.75250000       3.90890000
H       -0.31370000      -1.02020000       3.96150000
H       -0.95420000      -4.55740000       2.24220000
