14
Properties=species:S:1:pos:R:3 gdb_133228=T pbc="F F F"
C        0.06670000       1.42770000       0.02710000
N        0.00090000      -0.02380000       0.00720000
C       -1.13730000      -0.73220000      -0.18930000
N       -1.22620000      -2.01890000      -0.21250000
C       -0.05420000      -2.76020000      -0.01990000
N        0.03220000      -4.03370000      -0.01440000
C        1.15020000      -1.93850000       0.18930000
F        2.28870000      -2.56610000       0.37790000
N        1.19470000      -0.66020000       0.20500000
H        0.73570000       1.78560000      -0.76010000
H       -0.93430000       1.82850000      -0.13870000
H        0.44080000       1.77480000       0.99410000
H       -2.03020000      -0.12760000      -0.33590000
H       -0.89960000      -4.42390000      -0.17440000
