14
Properties=species:S:1:pos:R:3 gdb_85653=T pbc="F F F"
C        0.56190000       1.32540000      -0.29520000
C       -0.00320000      -0.04120000       0.03190000
O        0.19680000      -0.98720000      -1.01820000
C        1.27680000      -1.81690000      -0.66710000
C        2.52000000      -1.47180000      -1.37850000
N        3.48570000      -1.18680000      -1.94420000
C        1.43510000      -1.62000000       0.85930000
O        2.10840000      -2.24250000       1.61650000
O        0.63120000      -0.58870000       1.19400000
H        1.63580000       1.26260000      -0.49120000
H        0.06280000       1.71970000      -1.18390000
H        0.39120000       2.00900000       0.54050000
H       -1.07770000      -0.00530000       0.23370000
H        1.02490000      -2.86150000      -0.87560000
