13
Properties=species:S:1:pos:R:3 gdb_16802=T pbc="F F F"
N        0.07570000       1.34710000       0.09510000
C       -0.03730000      -0.00310000       0.03760000
C       -1.15370000      -0.77720000      -0.02580000
C       -0.79740000      -2.19630000       0.00280000
O       -1.52320000      -3.16650000       0.02540000
C        0.73960000      -2.25000000       0.02450000
O        1.34730000      -1.64260000      -1.13440000
C        1.20050000      -0.86490000       0.06290000
H        0.96140000       1.77160000      -0.12600000
H       -0.73620000       1.91560000      -0.08500000
H       -2.17230000      -0.42870000      -0.13220000
H        1.26680000      -3.09250000       0.46010000
H        2.11560000      -0.52900000       0.54250000
