21
Properties=species:S:1:pos:R:3 gdb_86423=T pbc="F F F"
C       -0.19680000       1.53220000       0.09760000
C        0.10710000       0.04090000      -0.03430000
C        1.11110000      -0.33210000      -1.14130000
C        1.56410000      -1.75950000      -0.77710000
O        2.73770000      -2.20980000      -1.42610000
C        1.62330000      -1.76610000       0.76800000
C        2.76920000      -0.95600000       1.40060000
O        1.89710000       0.15630000       1.68420000
C        0.73380000      -0.57960000       1.22270000
H        0.70980000       2.08060000       0.36850000
H       -0.58110000       1.94130000      -0.84210000
H       -0.94670000       1.71700000       0.87430000
H       -0.83030000      -0.50440000      -0.21910000
H        0.69410000      -0.27030000      -2.14960000
H        1.97270000       0.34850000      -1.09910000
H        0.78930000      -2.46980000      -1.08910000
H        3.42550000      -1.54990000      -1.28840000
H        1.45130000      -2.75320000       1.19640000
H        3.18730000      -1.38980000       2.31740000
H        3.60380000      -0.67030000       0.74470000
H        0.02020000      -0.73570000       2.03960000
