18
Properties=species:S:1:pos:R:3 gdb_13003=T pbc="F F F"
C       -0.03980000       1.50390000       0.02350000
C       -0.01610000       0.01040000      -0.03470000
C        0.02400000      -0.78100000      -1.11130000
C       -0.00190000      -2.25430000      -0.75820000
C        0.02040000      -2.25420000       0.76770000
C        1.21740000      -1.63880000       1.46890000
C       -0.02610000      -0.81430000       1.22330000
O       -0.83370000      -0.41300000       2.29040000
H        0.84940000       1.89930000       0.53300000
H       -0.08300000       1.94740000      -0.97440000
H       -0.90920000       1.85080000       0.59420000
H        0.09390000      -0.43020000      -2.13560000
H       -0.90210000      -2.74660000      -1.15030000
H        0.85390000      -2.79520000      -1.18350000
H       -0.53330000      -3.00710000       1.31510000
H        1.38300000      -1.97500000       2.48820000
H        2.11680000      -1.41460000       0.90310000
H       -0.31010000       0.15610000       2.86380000
