20
Properties=species:S:1:pos:R:3 gdb_66465=T pbc="F F F"
C       -0.00500000       1.45240000       0.01940000
C       -0.05920000      -0.04410000       0.00640000
C        0.96050000      -1.06990000      -0.39920000
C        0.60640000      -0.95730000       1.05640000
C       -0.31050000      -2.19230000       0.96130000
C        0.06430000      -3.46990000       1.65790000
C       -1.76270000      -1.68580000       0.82250000
C       -1.19710000      -0.98890000      -0.42350000
N       -0.14120000      -2.10200000      -0.58230000
H        0.98440000       1.80760000       0.32730000
H       -0.21100000       1.86870000      -0.97330000
H       -0.73820000       1.87440000       0.71710000
H        1.89310000      -1.02550000      -0.94850000
H        1.18130000      -0.57190000       1.88980000
H       -0.06910000      -3.37470000       2.74200000
H       -0.55510000      -4.30040000       1.30600000
H        1.11320000      -3.72120000       1.46770000
H       -2.44340000      -2.49960000       0.55570000
H       -2.18820000      -1.07610000       1.62400000
H       -1.80740000      -0.73050000      -1.29020000
