20
Properties=species:S:1:pos:R:3 gdb_82838=T pbc="F F F"
C       -0.24190000       1.53470000       0.01420000
C        0.04310000       0.04820000      -0.05720000
C        0.66070000      -0.55600000      -1.33240000
O        1.80110000       0.21380000      -1.78290000
C        2.66180000      -0.38870000      -0.78600000
C        2.44560000       0.24200000       0.59470000
N        1.16300000      -0.52650000       0.79710000
C        1.55850000      -1.41300000      -0.40430000
C        1.64170000      -2.89920000      -0.25900000
H        0.55360000       2.11520000      -0.45850000
H       -1.17770000       1.76460000      -0.50590000
H       -0.34660000       1.85780000       1.05540000
H       -0.85500000      -0.52230000       0.21260000
H        0.03400000      -0.89150000      -2.16350000
H        3.66380000      -0.59200000      -1.17320000
H        3.18070000      -0.10650000       1.32880000
H        2.37430000       1.33060000       0.65150000
H        0.67530000      -3.31470000       0.04560000
H        1.93500000      -3.36830000      -1.20430000
H        2.37680000      -3.17470000       0.50450000
