16
Properties=species:S:1:pos:R:3 gdb_67344=T pbc="F F F"
C       -0.04940000       1.54800000       0.02990000
C       -0.01210000       0.04480000       0.03100000
C        1.10520000      -0.79450000      -0.69790000
N        2.06340000      -0.46830000       0.41890000
C        0.76570000      -0.80170000       1.10920000
C        0.47360000      -1.95570000       0.11420000
O       -0.92820000      -2.05000000      -0.14970000
C       -1.29870000      -0.72420000      -0.21320000
O       -2.41110000      -0.34730000      -0.42220000
H        0.94840000       1.94970000       0.21890000
H       -0.40850000       1.92300000      -0.93310000
H       -0.73390000       1.91620000       0.79980000
H        1.38520000      -0.75540000      -1.75130000
H        2.72930000      -1.23890000       0.54090000
H        0.64420000      -0.77120000       2.19270000
H        0.93750000      -2.93650000       0.19740000
