16
Properties=species:S:1:pos:R:3 gdb_13962=T pbc="F F F"
O       -0.66200000       0.59310000       0.57340000
C        0.15300000       0.90440000      -0.25500000
C        1.26100000       1.92120000      -0.04040000
C        1.26460000       2.97580000      -1.11420000
C        1.90350000       2.81040000      -2.48580000
C        2.32000000       3.94470000      -1.60350000
O        1.39820000       5.02950000      -1.70300000
C        0.33800000       4.19250000      -1.16710000
H        0.14140000       0.45430000      -1.27440000
H        1.14730000       2.35280000       0.95930000
H        2.21430000       1.37440000      -0.06690000
H        2.61110000       1.98920000      -2.55750000
H        1.34430000       3.01900000      -3.39390000
H        3.33120000       4.16030000      -1.27710000
H       -0.53570000       4.14670000      -1.82780000
H        0.03470000       4.54740000      -0.17510000
