18
Properties=species:S:1:pos:R:3 gdb_16155=T pbc="F F F"
O       -0.04960000       1.34310000       0.43090000
C       -0.01130000      -0.00420000      -0.02970000
C       -1.41620000      -0.53250000      -0.05650000
C       -2.00260000      -1.11560000       1.20370000
C       -1.71110000      -2.02590000       0.02500000
C       -2.85980000      -2.25050000      -0.90020000
C       -3.26420000      -1.11340000      -1.47130000
C       -2.40100000       0.06420000      -1.06930000
H        0.83290000       1.71490000       0.33930000
H        0.42450000      -0.05710000      -1.04110000
H        0.61050000      -0.63230000       0.62890000
H       -1.34210000      -1.17730000       2.06300000
H       -3.04240000      -0.91800000       1.44340000
H       -0.92360000      -2.76700000       0.11670000
H       -3.31680000      -3.22370000      -1.04010000
H       -4.11700000      -1.01180000      -2.13320000
H       -2.98600000       0.88720000      -0.64190000
H       -1.86970000       0.48710000      -1.93380000
