16
Properties=species:S:1:pos:R:3 gdb_19204=T pbc="F F F"
C       -0.00800000       1.53880000       0.01660000
O        1.33250000       2.03300000       0.02960000
C        2.29000000       0.95580000       0.02190000
C        2.02080000       0.10790000       1.27830000
O        0.69440000      -0.41850000       1.20600000
C        0.02800000      -0.00010000      -0.00160000
C        0.83230000      -0.43240000      -1.20330000
C        2.06310000       0.08110000      -1.18690000
H       -0.52190000       1.88080000       0.92410000
H       -0.53680000       1.93240000      -0.86170000
H        3.27470000       1.42310000       0.05630000
H        2.74040000      -0.71760000       1.36000000
H        2.10360000       0.74160000       2.17050000
H       -0.97510000      -0.42580000       0.04080000
H        0.42580000      -1.07730000      -1.97350000
H        2.83200000      -0.09450000      -1.93010000
