18
Properties=species:S:1:pos:R:3 gdb_98797=T pbc="F F F"
C        0.04030000       1.49210000      -0.28280000
C       -0.14470000      -0.02120000      -0.21340000
C       -1.53790000      -0.44730000       0.20990000
O       -2.40870000       0.33480000       0.51780000
C       -1.78830000      -1.94590000       0.16080000
C       -3.22950000      -2.43860000       0.43750000
N       -3.26900000      -2.90640000      -0.95700000
C       -2.01890000      -2.47680000      -1.29800000
O       -1.37670000      -2.48570000      -2.31290000
H        1.06020000       1.74140000      -0.58780000
H       -0.65290000       1.93660000      -1.00150000
H       -0.15520000       1.95590000       0.68740000
H        0.05540000      -0.50570000      -1.17980000
H        0.56990000      -0.47850000       0.48590000
H       -0.99240000      -2.49620000       0.66840000
H       -3.31770000      -3.23970000       1.17640000
H       -3.92480000      -1.62680000       0.65980000
H       -4.00860000      -3.29800000      -1.52080000
