18
Properties=species:S:1:pos:R:3 gdb_38563=T pbc="F F F"
C        0.00360000       1.56980000       0.07430000
N        1.52540000       1.38540000      -0.03390000
C        1.82450000       0.75030000       1.28800000
C        0.95380000      -0.49380000       1.14310000
C        1.48840000      -1.27230000      -0.09820000
C        0.22440000      -2.06690000      -0.52160000
C       -0.80590000      -1.21400000      -0.40480000
C       -0.08620000       0.04530000       0.04150000
C        1.20420000       0.08290000      -0.80710000
H       -0.32440000       2.13090000       0.95500000
H       -0.36780000       2.04820000      -0.83530000
H        2.89470000       0.53640000       1.36860000
H        1.53780000       1.41190000       2.11030000
H        0.60080000      -1.04010000       2.01790000
H        2.44600000      -1.79770000      -0.10670000
H        0.21670000      -3.10720000      -0.81490000
H       -1.85890000      -1.37690000      -0.58120000
H        1.19350000       0.20150000      -1.89010000
