15
Properties=species:S:1:pos:R:3 gdb_51377=T pbc="F F F"
O        0.34930000       0.10150000       0.17380000
C        0.63250000       1.24470000       0.36280000
O        0.73450000       2.13710000      -0.64710000
C        1.01810000       3.47960000      -0.33700000
C        1.85560000       4.05560000       0.77310000
C        3.22350000       3.34440000       1.00740000
O        3.32060000       2.19350000       0.16230000
C        3.58870000       3.48540000      -0.39490000
C        2.25480000       4.22100000      -0.72070000
H        0.82280000       1.69560000       1.35180000
H        0.13060000       4.08810000      -0.50580000
H        1.46300000       4.80300000       1.45130000
H        3.80750000       3.36400000       1.91870000
H        4.54140000       3.63950000      -0.88480000
H        2.21810000       5.11530000      -1.32940000
