17
Properties=species:S:1:pos:R:3 gdb_73759=T pbc="F F F"
C        0.10730000       1.51240000       0.05780000
C       -0.04230000       0.03230000      -0.02270000
C       -1.15970000      -0.73780000       0.01940000
C       -2.59620000      -0.34120000       0.12630000
C       -0.73320000      -2.13670000      -0.08640000
O       -1.41110000      -3.13870000      -0.11060000
C        0.80670000      -2.09500000      -0.16850000
N        1.56060000      -3.11350000      -0.18830000
N        1.11870000      -0.73580000      -0.20470000
H        0.76340000       1.79180000       0.89190000
H        0.56500000       1.90430000      -0.85830000
H       -0.85520000       2.00310000       0.20230000
H       -3.16270000      -0.68710000      -0.74570000
H       -3.06280000      -0.80480000       1.00230000
H       -2.72510000       0.74110000       0.20600000
H        2.54950000      -2.85390000      -0.24180000
H        2.03330000      -0.38250000       0.02770000
