19
Properties=species:S:1:pos:R:3 gdb_38335=T pbc="F F F"
C       -0.01550000       1.68060000       0.10680000
C        1.45380000       1.21950000      -0.03100000
O        1.21570000       0.24790000       1.06200000
C        0.04450000       0.13660000       0.16140000
C        1.02260000       0.12190000      -1.06220000
C        0.55090000       0.48140000      -2.49540000
C        1.21580000      -0.55550000      -3.44540000
C        2.01760000      -1.43300000      -2.51750000
C        1.91200000      -1.06760000      -1.24140000
H       -0.25360000       2.15930000       1.05720000
H       -0.50010000       2.15970000      -0.74640000
H        2.37560000       1.80300000       0.00880000
H       -0.73010000      -0.58330000       0.43270000
H       -0.53940000       0.44080000      -2.57100000
H        0.84430000       1.50110000      -2.76010000
H        0.47280000      -1.13480000      -4.00810000
H        1.85290000      -0.07510000      -4.19880000
H        2.60920000      -2.26760000      -2.87850000
H        2.39300000      -1.54290000      -0.39690000
