15
Properties=species:S:1:pos:R:3 gdb_124981=T pbc="F F F"
C       -0.17280000       1.50450000      -0.14950000
C       -0.07210000       0.02490000      -0.05060000
C       -1.00580000      -0.96800000       0.06380000
C       -2.50220000      -0.89530000       0.10850000
C       -3.03320000      -0.42890000      -1.24030000
O       -3.47130000       0.67400000      -1.44310000
N       -0.31000000      -2.15580000       0.11540000
N        0.92870000      -1.95750000       0.05210000
O        1.13380000      -0.54170000      -0.05680000
H        0.22390000       1.98190000       0.75280000
H        0.40710000       1.87330000      -1.00070000
H       -1.21440000       1.80350000      -0.28000000
H       -2.88630000      -1.89610000       0.32930000
H       -2.85140000      -0.19920000       0.87610000
H       -2.94790000      -1.17870000      -2.05680000
