17
Properties=species:S:1:pos:R:3 gdb_6405=T pbc="F F F"
N        0.41240000       0.32550000       0.76050000
C        0.07220000      -0.12460000      -0.48020000
O        0.62570000       0.24690000      -1.49730000
C       -1.09860000      -1.11280000      -0.51110000
C       -1.11580000      -2.17650000       0.59150000
O       -1.34220000      -1.62460000       1.89520000
C       -2.15100000      -3.27770000       0.31620000
O       -1.94440000      -3.94140000      -0.91590000
H        1.20830000       0.93730000       0.83700000
H       -0.00370000      -0.08130000       1.58500000
H       -2.03680000      -0.53990000      -0.46610000
H       -1.07600000      -1.60500000      -1.48480000
H       -0.12400000      -2.64140000       0.66430000
H       -2.21670000      -1.21660000       1.89310000
H       -2.15790000      -3.97160000       1.16910000
H       -3.15000000      -2.82700000       0.25000000
H       -1.14440000      -4.47200000      -0.84200000
