22
Properties=species:S:1:pos:R:3 gdb_89060=T pbc="F F F"
C        0.66870000       1.34650000      -0.43570000
C       -0.01340000       0.12060000       0.12650000
N        0.82250000      -1.06520000       0.37790000
C        0.17070000      -0.39010000       1.51260000
C        1.06540000       0.25500000       2.53630000
O        1.32450000      -0.70380000       3.55120000
C        2.17190000      -0.22950000       4.54810000
C        2.97080000      -1.25470000       5.28270000
C        3.66380000      -0.29360000       4.33500000
H        1.67390000       1.46640000      -0.02650000
H        0.76090000       1.26520000      -1.52410000
H        0.09140000       2.25110000      -0.21490000
H       -1.00270000      -0.06030000      -0.29380000
H        0.32670000      -1.91860000       0.13680000
H       -0.68960000      -0.88440000       1.96180000
H        2.00410000       0.58680000       2.07430000
H        0.56920000       1.13900000       2.97250000
H        1.77500000       0.61850000       5.10940000
H        3.11250000      -1.13390000       6.35070000
H        2.85810000      -2.27990000       4.94950000
H        4.00180000      -0.69940000       3.38810000
H        4.28820000       0.49160000       4.74720000
