19
Properties=species:S:1:pos:R:3 gdb_88566=T pbc="F F F"
O        0.00900000       1.40250000       0.02410000
C        0.01230000       0.00820000      -0.06890000
C       -0.33320000      -0.81370000       1.14550000
C       -1.32610000      -0.67620000       0.00330000
C       -2.57880000       0.09640000       0.16030000
C       -2.91530000       1.28330000       1.08270000
C       -4.41330000       0.81540000       1.06710000
C       -3.99310000      -0.33060000       0.13870000
O       -3.39030000       0.26520000      -1.01780000
H        0.78740000       1.66940000       0.52420000
H        0.73870000      -0.40160000      -0.77060000
H        0.15260000      -1.77130000       1.29730000
H       -0.54910000      -0.26190000       2.05430000
H       -1.44710000      -1.53960000      -0.64360000
H       -2.46740000       1.20920000       2.07590000
H       -2.68940000       2.26040000       0.65460000
H       -4.75740000       0.47490000       2.04680000
H       -5.14450000       1.50780000       0.64300000
H       -4.43920000      -1.31150000       0.01180000
