19
Properties=species:S:1:pos:R:3 gdb_117807=T pbc="F F F"
N        0.10900000       1.36010000      -0.36030000
C        0.04370000       0.01930000       0.19040000
C       -1.33330000      -0.68810000       0.06460000
O       -1.67330000      -0.64980000      -1.30760000
C       -1.26390000      -2.13720000       0.59550000
C       -2.60550000      -2.86200000       0.62100000
O       -3.12090000      -2.90270000      -0.71560000
C       -2.33420000       0.08490000       0.85080000
N       -3.10750000       0.68610000       1.46570000
H       -0.24630000       1.34190000      -1.31210000
H       -0.49880000       1.98370000       0.16380000
H        0.76130000      -0.61640000      -0.34100000
H        0.33690000       0.04500000       1.24530000
H       -2.37040000      -1.31210000      -1.44170000
H       -0.56590000      -2.67940000      -0.05150000
H       -0.85120000      -2.13810000       1.61040000
H       -2.46780000      -3.88130000       1.00740000
H       -3.30250000      -2.33650000       1.28680000
H       -4.05500000      -3.12840000      -0.68140000
