17
Properties=species:S:1:pos:R:3 gdb_55772=T pbc="F F F"
N       -0.24500000       1.40890000      -0.27640000
C       -0.13000000       0.04340000      -0.51810000
O        0.64710000      -0.41750000      -1.32830000
N       -1.02730000      -0.71940000       0.20930000
C       -1.08840000      -2.12510000       0.13210000
C       -1.18470000      -2.88230000      -1.17200000
C       -2.24450000      -3.07670000      -0.13680000
O       -1.81090000      -3.99230000       0.87110000
C       -0.72310000      -3.10560000       1.24890000
H        0.53330000       1.92750000      -0.65440000
H       -0.52360000       1.70880000       0.64600000
H       -1.68500000      -0.24860000       0.81040000
H       -1.45590000      -2.25690000      -2.01500000
H       -0.48470000      -3.68260000      -1.39230000
H       -3.30970000      -2.92830000      -0.27210000
H        0.25710000      -3.59390000       1.20060000
H       -0.88970000      -2.70010000       2.25480000
