19
Properties=species:S:1:pos:R:3 gdb_73763=T pbc="F F F"
C       -0.11330000       1.48850000       0.15630000
C       -0.05830000       0.00300000       0.00560000
C        0.00430000      -0.72610000      -1.12850000
C        0.05250000      -0.29050000      -2.55760000
C        0.04560000      -2.17930000      -0.78910000
O        0.02890000      -3.09710000      -1.57980000
C        0.08790000      -2.28680000       0.71810000
C        1.28560000      -1.64010000       1.39770000
C       -0.00870000      -0.87600000       1.22390000
H        0.73760000       1.84740000       0.74890000
H       -0.10720000       2.00800000      -0.80390000
H       -1.01740000       1.78860000       0.70090000
H        0.97580000      -0.63530000      -3.03730000
H       -0.77050000      -0.74240000      -3.12160000
H       -0.00730000       0.79470000      -2.66760000
H       -0.39090000      -3.13040000       1.19760000
H        1.53380000      -2.00930000       2.38790000
H        2.13650000      -1.34970000       0.79030000
H       -0.59010000      -0.61230000       2.10030000
