22
Properties=species:S:1:pos:R:3 gdb_114617=T pbc="F F F"
C        0.14370000       1.44030000       0.47590000
C        0.07830000       0.00960000      -0.08090000
C       -1.32660000      -0.51090000      -0.16120000
N       -2.07960000      -0.92560000       1.05270000
C       -1.91510000      -1.88170000      -0.06910000
C       -3.04330000      -1.54290000      -1.04640000
C       -2.36890000      -0.12640000      -1.21300000
O       -3.09370000       1.03870000      -0.94240000
C       -4.03250000       1.35620000      -1.94420000
H        1.17210000       1.81400000       0.48070000
H       -0.46840000       2.11760000      -0.12680000
H       -0.23930000       1.47930000       1.50020000
H        0.52730000      -0.01660000      -1.08240000
H        0.67970000      -0.66540000       0.54280000
H       -1.37320000      -1.16090000       1.75140000
H       -1.41750000      -2.83320000       0.07440000
H       -3.05140000      -2.12900000      -1.96750000
H       -4.03580000      -1.53490000      -0.59010000
H       -1.89160000      -0.05920000      -2.20490000
H       -3.54990000       1.50070000      -2.92460000
H       -4.79990000       0.57500000      -2.05170000
H       -4.52010000       2.28870000      -1.65030000
