18
Properties=species:S:1:pos:R:3 gdb_60694=T pbc="F F F"
N       -0.23430000       0.58730000      -1.25530000
C       -0.25810000      -0.19480000      -0.13970000
C        1.11290000      -0.65120000       0.28750000
O        2.11670000      -0.40590000      -0.33650000
N       -1.20280000      -0.59410000       0.63160000
C       -2.60090000      -0.25130000       0.42850000
C       -3.12350000      -0.22780000      -0.99540000
C       -4.39600000       0.44490000      -1.33750000
N       -3.11460000       1.02320000      -1.79070000
H        0.66440000       0.62750000      -1.71530000
H       -1.05960000       0.75020000      -1.81320000
H        1.09970000      -1.23840000       1.22410000
H       -3.18910000      -0.97800000       1.00280000
H       -2.80250000       0.72920000       0.89320000
H       -2.84830000      -1.09920000      -1.58670000
H       -5.02930000       0.04810000      -2.12510000
H       -4.92980000       0.96230000      -0.54420000
H       -2.87970000       1.80200000      -1.17660000
