18
Properties=species:S:1:pos:R:3 gdb_16375=T pbc="F F F"
O        0.56240000       0.80710000      -0.80830000
C        0.17180000      -0.27250000       0.00350000
C        0.14200000      -0.09900000       1.55090000
C       -1.19840000      -0.89110000       1.58470000
O       -2.23940000      -0.45790000       2.42480000
C       -1.31140000      -0.67390000       0.06650000
C       -2.42490000       0.08920000      -0.59990000
C       -2.16900000      -1.35970000      -0.94500000
H        0.02730000       1.56880000      -0.55990000
H        0.80910000      -1.10820000      -0.30130000
H        0.98470000      -0.47700000       2.13320000
H       -0.02610000       0.95200000       1.81640000
H       -1.04360000      -1.94470000       1.83670000
H       -2.39760000       0.47390000       2.23830000
H       -3.30720000       0.31990000      -0.01090000
H       -2.15730000       0.83910000      -1.33790000
H       -1.73410000      -1.57930000      -1.91520000
H       -2.88200000      -2.09760000      -0.59050000
