19
Properties=species:S:1:pos:R:3 gdb_41148=T pbc="F F F"
C        0.03480000       1.54270000       0.09840000
O        1.48410000       1.43390000      -0.05310000
C        1.28020000       0.14320000      -0.69820000
C        2.13570000      -1.07560000      -0.55290000
C        1.45920000      -2.17260000      -0.18700000
C        0.02880000      -2.04500000       0.32270000
C        0.05410000      -0.82670000       1.29360000
C       -0.06960000       0.01320000       0.00630000
C       -0.88810000      -1.15060000      -0.60140000
H       -0.24390000       2.01600000       1.04450000
H       -0.41120000       2.09180000      -0.74360000
H        1.13640000       0.33930000      -1.77690000
H        3.17010000      -1.09470000      -0.88030000
H        1.92830000      -3.15220000      -0.17640000
H       -0.37970000      -2.99480000       0.66870000
H       -0.86210000      -0.75200000       1.88830000
H        0.93440000      -0.69740000       1.92500000
H       -0.83050000      -1.29420000      -1.68350000
H       -1.93040000      -1.19510000      -0.27300000
