19
Properties=species:S:1:pos:R:3 gdb_99322=T pbc="F F F"
O        0.26250000       1.20550000       0.22680000
C        0.00150000      -0.05120000      -0.32100000
C       -1.45040000      -0.45240000      -0.03540000
O       -2.17420000       0.30570000       0.59440000
N       -1.84780000      -1.65650000      -0.51280000
C       -3.17920000      -2.20390000      -0.29010000
C       -3.11960000      -3.63220000       0.19270000
C       -4.22310000      -4.57140000      -0.11160000
N       -2.91260000      -4.73550000      -0.76770000
H       -0.57700000       1.46510000       0.64410000
H        0.16300000      -0.05200000      -1.41130000
H        0.67110000      -0.81780000       0.10200000
H       -1.17680000      -2.22570000      -1.00560000
H       -3.65800000      -1.55440000       0.44730000
H       -3.77720000      -2.15130000      -1.21210000
H       -2.56850000      -3.76810000       1.12100000
H       -4.48240000      -5.35040000       0.59870000
H       -5.05770000      -4.20280000      -0.70290000
H       -2.97330000      -4.37920000      -1.72020000
