18
Properties=species:S:1:pos:R:3 gdb_71307=T pbc="F F F"
O       -0.05270000       1.33130000       0.10710000
C        0.03000000      -0.06660000      -0.00830000
C        0.22750000      -0.66300000      -1.43190000
N       -1.08960000      -1.39800000      -1.37130000
C       -1.15130000      -2.17430000      -0.10790000
C        0.00330000      -2.84390000       0.61390000
O        1.17690000      -2.05890000       0.75560000
C        0.93700000      -0.69540000       1.05260000
C       -1.35640000      -0.71710000      -0.04300000
H        0.83280000       1.69820000       0.00540000
H        0.14270000       0.11720000      -2.19170000
H        1.10170000      -1.29000000      -1.62020000
H       -2.05070000      -2.78660000      -0.09230000
H       -0.37480000      -3.14860000       1.60570000
H        0.31840000      -3.75180000       0.08870000
H        1.92310000      -0.21510000       1.05440000
H        0.48770000      -0.56370000       2.05050000
H       -2.28770000      -0.21260000       0.19050000
