25
Properties=species:S:1:pos:R:3 gdb_105217=T pbc="F F F"
C        0.61020000      -1.15680000       1.23750000
C        0.18690000      -0.41090000      -0.04060000
C        1.23250000      -0.58420000      -1.15070000
C       -1.27260000      -0.71760000      -0.43120000
C       -2.25380000       0.16530000       0.31900000
O       -2.04510000       1.51880000      -0.07410000
C       -1.69150000      -1.05690000      -1.84570000
C       -1.81790000      -2.09930000      -0.76240000
C       -1.01060000      -3.38010000      -0.79890000
H        1.56640000      -0.77350000       1.60980000
H       -0.12650000      -1.03780000       2.03880000
H        0.73160000      -2.22900000       1.05650000
H        0.18080000       0.66010000       0.19490000
H        1.34840000      -1.62510000      -1.46950000
H        0.98150000       0.01310000      -2.03170000
H        2.21120000      -0.24870000      -0.79070000
H       -3.28380000      -0.14880000       0.09030000
H       -2.10950000       0.05120000       1.40540000
H       -2.53890000       2.08430000       0.52670000
H       -2.58560000      -0.58740000      -2.24290000
H       -0.91150000      -1.20940000      -2.58340000
H       -2.83240000      -2.26490000      -0.40360000
H       -0.00440000      -3.23090000      -1.19660000
H       -0.91310000      -3.82540000       0.19700000
H       -1.50750000      -4.11700000      -1.44070000
