18
Properties=species:S:1:pos:R:3 gdb_22842=T pbc="F F F"
O       -0.25480000       1.52500000       0.24820000
N        0.06770000       0.17970000       0.02430000
C       -0.95460000      -0.58740000      -0.00240000
C       -2.38960000      -0.12900000       0.11020000
O       -2.99090000      -0.11810000      -1.17680000
C       -3.57880000      -1.33220000      -1.58250000
C       -2.68890000      -2.54030000      -1.72130000
C       -1.51110000      -2.82610000      -1.16790000
C       -0.66260000      -2.05210000      -0.18930000
H        0.61140000       1.94410000       0.22050000
H       -2.94800000      -0.78320000       0.79750000
H       -2.43030000       0.89300000       0.48510000
H       -4.41420000      -1.59410000      -0.90430000
H       -4.03180000      -1.11530000      -2.55690000
H       -3.13340000      -3.30620000      -2.35630000
H       -1.08790000      -3.80090000      -1.40450000
H        0.39530000      -2.15430000      -0.45170000
H       -0.76810000      -2.55170000       0.78960000
