15
Properties=species:S:1:pos:R:3 gdb_128194=T pbc="F F F"
C        0.04280000       1.48860000      -0.06380000
N       -0.12380000       0.05470000       0.08780000
C        0.53830000      -0.69720000       1.01870000
C        0.62760000      -2.06120000       1.00510000
C        1.31270000      -2.74890000       2.06340000
O        1.46130000      -3.94910000       2.16120000
N        1.88260000      -1.90700000       3.11340000
N        1.79100000      -0.65970000       3.09640000
N        1.13400000      -0.04180000       2.06060000
H        1.08700000       1.78690000      -0.23320000
H       -0.54710000       1.81460000      -0.92140000
H       -0.34120000       2.02750000       0.81060000
H       -0.40580000      -0.45680000      -0.73250000
H        0.18360000      -2.64020000       0.20500000
H        1.11060000       0.95860000       2.16160000
