18
Properties=species:S:1:pos:R:3 gdb_79300=T pbc="F F F"
C       -0.03350000       1.60730000       0.01590000
C        0.08470000       0.09460000      -0.04410000
C        0.80500000      -0.62350000      -1.17570000
C        2.27870000      -0.71000000      -0.76290000
C        2.37530000      -0.04980000       0.59950000
N        1.01030000      -0.60760000       0.94950000
C        1.25740000      -1.66390000      -0.17560000
C        1.14220000      -3.06300000      -0.08130000
C        1.04480000      -4.26050000       0.00110000
H        0.88320000       2.11940000      -0.28590000
H       -0.83260000       1.94230000      -0.65380000
H       -0.29150000       1.92570000       1.03180000
H       -0.90120000      -0.35580000       0.10920000
H        0.49500000      -0.80140000      -2.19820000
H        3.05260000      -0.95120000      -1.48090000
H        3.11930000      -0.53060000       1.23890000
H        2.47160000       1.03640000       0.68100000
H        0.95740000      -5.31570000       0.07820000
