25
Properties=species:S:1:pos:R:3 gdb_89981=T pbc="F F F"
C       -0.33810000       1.47860000      -0.09200000
C       -0.04220000      -0.01590000       0.01110000
C        1.15300000      -0.49160000      -0.86620000
C        2.05110000      -0.53920000       0.40150000
C        3.14110000      -1.63100000       0.53260000
C        4.20770000      -0.57410000       0.14040000
C        3.17830000       0.53170000       0.49520000
C        0.76510000      -0.48010000       1.27070000
C        0.74680000       0.34200000       2.55130000
H        0.56520000       2.08590000       0.03060000
H       -0.76030000       1.71680000      -1.07460000
H       -1.05990000       1.80120000       0.66640000
H       -0.97190000      -0.57160000      -0.14810000
H        0.99050000      -1.48600000      -1.29360000
H        1.46680000       0.18310000      -1.66970000
H        3.25830000      -1.95950000       1.57140000
H        3.03820000      -2.51760000      -0.10050000
H        5.15300000      -0.57810000       0.68840000
H        4.42930000      -0.59750000      -0.93020000
H        3.10970000       1.39760000      -0.16960000
H        3.31500000       0.89230000       1.51970000
H        0.47230000      -1.51090000       1.50860000
H        1.01260000       1.38820000       2.37200000
H       -0.24550000       0.32710000       3.01610000
H        1.45680000      -0.05800000       3.28450000
