16
Properties=species:S:1:pos:R:3 gdb_15704=T pbc="F F F"
O       -0.06260000       1.40860000      -0.15360000
C        0.00610000       0.00110000      -0.12680000
C       -1.36360000      -0.59680000       0.22340000
O       -2.35610000      -0.13630000      -0.69180000
C       -2.56890000      -1.14290000      -1.69380000
C       -2.37850000      -2.47990000      -0.97580000
C       -1.37640000      -2.12350000       0.12330000
O       -0.70210000      -2.87550000       0.77510000
H       -0.83840000       1.62610000      -0.68550000
H        0.35390000      -0.40590000      -1.09130000
H        0.73390000      -0.28880000       0.63640000
H       -1.65100000      -0.26690000       1.22790000
H       -3.57190000      -0.99050000      -2.09700000
H       -1.84640000      -1.03180000      -2.51520000
H       -3.30680000      -2.80700000      -0.49250000
H       -2.01300000      -3.29700000      -1.60010000
