10
Properties=species:S:1:pos:R:3 gdb_3848=T pbc="F F F"
N       -0.06070000       1.25980000       0.32620000
C       -0.03130000       0.05020000      -0.05010000
O        1.13820000      -0.59010000      -0.40050000
N        1.13730000      -1.92830000      -0.81240000
C       -0.00590000      -2.51030000      -0.84170000
N       -1.25570000      -1.98590000      -0.51640000
C       -1.24600000      -0.75970000      -0.14020000
H        0.87460000       1.67190000       0.33050000
H        0.02000000      -3.54570000      -1.16390000
H       -2.17600000      -0.26600000       0.13370000
