20
Properties=species:S:1:pos:R:3 gdb_85135=T pbc="F F F"
C       -0.18560000       1.55380000      -0.24380000
C        0.17570000       0.08730000      -0.17960000
O        1.54270000      -0.16440000      -0.67270000
C        1.91060000      -0.73330000       0.52650000
N        3.00020000      -1.23480000       0.89760000
C        0.56250000      -0.53480000       1.17970000
C        0.50830000       0.18330000       2.55530000
C        0.27490000      -1.20070000       3.21950000
C       -0.12820000      -1.76160000       1.82960000
H        0.51710000       2.15720000       0.33810000
H       -0.16960000       1.90580000      -1.27950000
H       -1.19360000       1.71360000       0.15350000
H       -0.52720000      -0.52520000      -0.75520000
H        3.70210000      -1.19470000       0.15660000
H        1.39420000       0.74810000       2.85160000
H       -0.37120000       0.83020000       2.62990000
H        1.21380000      -1.63710000       3.56600000
H       -0.46420000      -1.25690000       4.02110000
H       -1.21090000      -1.73240000       1.67020000
H        0.24940000      -2.74570000       1.54520000
