15
Properties=species:S:1:pos:R:3 gdb_47150=T pbc="F F F"
N        0.14940000       1.22940000      -0.77770000
C        0.09900000       0.04040000      -0.34620000
O        1.08750000      -0.90130000      -0.44680000
C        0.64770000      -2.12110000       0.16280000
C       -0.73700000      -1.82830000       0.65750000
C       -1.04530000      -0.56690000       0.35530000
C       -2.28670000       0.23560000       0.61260000
C       -3.32060000      -0.51790000       1.31710000
N       -4.12520000      -1.13120000       1.87460000
H        1.04390000       1.42290000      -1.22920000
H        0.67400000      -2.92490000      -0.58440000
H        1.34230000      -2.38920000       0.96950000
H       -1.35680000      -2.54980000       1.17280000
H       -2.03040000       1.13400000       1.18710000
H       -2.68650000       0.60830000      -0.33820000
