18
Properties=species:S:1:pos:R:3 gdb_93206=T pbc="F F F"
C        0.01440000       1.50200000      -0.06380000
C       -0.03050000       0.00420000       0.01990000
C       -1.15660000      -0.71960000      -0.03310000
C       -1.15470000      -2.22810000      -0.01220000
O       -1.28420000      -2.75200000      -1.33230000
C        0.08970000      -2.74900000       0.70960000
N        1.27100000      -2.03930000       0.24420000
C        1.30490000      -0.67340000       0.10590000
O        2.35250000      -0.05640000       0.00330000
H        0.63180000       1.82150000      -0.90890000
H       -0.98870000       1.92160000      -0.17030000
H        0.48320000       1.92620000       0.83030000
H       -2.11680000      -0.22910000      -0.17410000
H       -2.03630000      -2.59920000       0.51990000
H       -0.56020000      -2.38570000      -1.85350000
H       -0.04970000      -2.63060000       1.79550000
H        0.20490000      -3.81500000       0.49630000
H        2.17830000      -2.45600000       0.39590000
