20
Properties=species:S:1:pos:R:3 gdb_43634=T pbc="F F F"
O       -0.00200000      -0.02340000      -0.18710000
C       -0.01460000       1.15590000      -0.00810000
C       -1.10240000       2.22230000       0.18490000
N       -0.03090000       3.15940000       0.60630000
C        1.05070000       2.25030000       0.15090000
C       -0.05700000       4.49140000       0.05310000
C       -1.14490000       5.46150000       0.58420000
C       -0.07580000       6.58840000       0.58440000
C        1.02170000       5.48970000       0.54990000
H       -1.58130000       2.47890000      -0.77540000
H       -1.88110000       2.02590000       0.92870000
H        1.85740000       2.07450000       0.86970000
H        1.49230000       2.51890000      -0.82390000
H       -0.07420000       4.47250000      -1.05480000
H       -2.04520000       5.60200000      -0.01840000
H       -1.43300000       5.18070000       1.60110000
H       -0.09800000       7.17310000      -0.33930000
H       -0.07140000       7.27810000       1.43040000
H        1.34900000       5.21690000       1.55710000
H        1.89850000       5.65320000      -0.08080000
