20
Properties=species:S:1:pos:R:3 gdb_13146=T pbc="F F F"
C        0.07600000       1.35400000       0.60740000
O       -0.01390000      -0.02900000       0.85360000
C        1.08630000      -0.75140000       0.34500000
C        0.85640000      -2.22360000       0.63900000
O        1.93660000      -3.02840000       0.11750000
C        2.21250000      -3.59240000       1.41790000
C        1.08240000      -2.76920000       2.07700000
C        1.46540000      -1.80520000       3.19160000
H        0.11530000       1.57370000      -0.47120000
H       -0.81590000       1.82190000       1.03130000
H        0.96810000       1.79610000       1.07890000
H        1.17920000      -0.62060000      -0.74660000
H        2.03100000      -0.40350000       0.79270000
H       -0.10890000      -2.51640000       0.20520000
H        2.08540000      -4.68190000       1.42560000
H        3.22870000      -3.35270000       1.75850000
H        0.24530000      -3.39180000       2.40240000
H        2.36050000      -1.22760000       2.93880000
H        0.65530000      -1.09840000       3.39150000
H        1.67950000      -2.35290000       4.11550000
