18
Properties=species:S:1:pos:R:3 gdb_116591=T pbc="F F F"
C        0.34240000       1.53730000      -0.29180000
C       -0.38990000       0.38920000       0.39640000
N        0.32570000      -0.03210000       1.59680000
C       -0.15960000      -0.98050000       2.27640000
C        0.45070000      -1.54360000       3.54680000
O       -0.44030000      -2.59130000       3.95800000
C       -1.47940000      -2.69580000       3.08080000
N       -2.44510000      -3.50520000       3.12920000
N       -1.30190000      -1.73900000       2.09220000
H        1.35280000       1.22970000      -0.57570000
H       -0.19010000       1.85760000      -1.19280000
H        0.43010000       2.39320000       0.38340000
H       -1.41450000       0.70700000       0.65180000
H       -0.49290000      -0.45490000      -0.30570000
H        1.44660000      -1.95930000       3.36820000
H        0.51570000      -0.78820000       4.33520000
H       -2.36360000      -4.11110000       3.94260000
H       -1.96300000      -1.64410000       1.34110000
