12
Properties=species:S:1:pos:R:3 gdb_2747=T pbc="F F F"
O       -0.60560000       0.78400000      -0.58110000
C        0.21170000       0.95450000       0.28810000
C        1.39230000       1.88170000       0.17550000
C        1.52470000       2.70120000      -1.13080000
N        1.29340000       3.90800000      -0.32520000
C        1.16570000       3.27830000       0.87950000
O        0.96320000       3.64860000       2.00050000
H        0.12810000       0.44150000       1.26960000
H        2.30110000       1.39380000       0.53780000
H        2.51040000       2.66370000      -1.60260000
H        0.73940000       2.48910000      -1.85900000
H        1.22450000       4.88480000      -0.56870000
