16
Properties=species:S:1:pos:R:3 gdb_29322=T pbc="F F F"
C        0.00720000       1.52240000      -0.02880000
C        0.00540000       0.02640000       0.00800000
C       -0.02470000      -0.83070000      -1.05140000
O       -0.01670000      -2.12220000      -0.65080000
C        0.01920000      -2.09600000       0.71560000
C        0.03450000      -3.32630000       1.40450000
N        0.04850000      -4.31730000       2.00600000
C        0.03490000      -0.80580000       1.17910000
C        0.07430000      -0.36050000       2.60440000
H        0.89920000       1.93420000       0.45660000
H       -0.01300000       1.89130000      -1.05750000
H       -0.86280000       1.93750000       0.49240000
H       -0.05250000      -0.67340000      -2.11790000
H        0.96400000       0.24740000       2.80400000
H       -0.79750000       0.25640000       2.84980000
H        0.08780000      -1.21510000       3.28470000
