18
Properties=species:S:1:pos:R:3 gdb_55470=T pbc="F F F"
N        0.63450000       0.00920000       0.76460000
C       -0.22590000       0.36840000      -0.21710000
O       -0.05480000       1.29720000      -0.98510000
C       -1.48420000      -0.49500000      -0.31680000
C       -1.66670000      -1.02560000      -1.74200000
O       -2.82200000      -1.84410000      -1.81780000
C       -2.74270000      -2.92560000      -0.90510000
C       -2.57000000      -2.41070000       0.51940000
O       -1.42050000      -1.57610000       0.60770000
H        1.48580000       0.53200000       0.88290000
H        0.42880000      -0.78400000       1.34770000
H       -2.34580000       0.14810000      -0.07460000
H       -1.79990000      -0.19520000      -2.43600000
H       -0.77080000      -1.59690000      -2.03490000
H       -3.67160000      -3.49540000      -1.00250000
H       -1.89590000      -3.58290000      -1.16280000
H       -3.46610000      -1.84610000       0.82130000
H       -2.41770000      -3.23420000       1.22320000
