9
Properties=species:S:1:pos:R:3 gdb_23851=T pbc="F F F"
F        0.06380000       0.02980000       0.00230000
C       -0.01940000       1.34550000       0.01050000
N       -1.18560000       1.86700000       0.02840000
O       -1.21040000       3.24160000       0.03640000
C       -0.04730000       4.03810000       0.02600000
O       -0.19990000       5.21800000       0.03390000
N        1.19680000       3.39110000       0.00620000
C        1.20570000       2.10870000      -0.00100000
H        2.15760000       1.57780000      -0.01620000
