19
Properties=species:S:1:pos:R:3 gdb_99555=T pbc="F F F"
C        0.56180000       1.08990000       0.57860000
O       -0.29170000       0.39400000      -0.30600000
C        0.38460000      -0.29600000      -1.33710000
C        1.15790000      -1.43920000      -0.82820000
C        1.79420000      -2.37070000      -0.41230000
C       -0.67950000      -0.74870000      -2.37630000
C       -1.77380000      -1.62450000      -1.73790000
C       -1.24420000       0.41430000      -3.05790000
C       -1.71020000       1.36390000      -3.62840000
H        1.24000000       0.40910000       1.11060000
H        1.16430000       1.84180000       0.04640000
H       -0.07940000       1.59660000       1.30300000
H        1.08040000       0.39040000      -1.84700000
H        2.35880000      -3.19210000      -0.04480000
H       -0.13700000      -1.35050000      -3.11680000
H       -2.31380000      -1.05930000      -0.97660000
H       -2.48360000      -1.95470000      -2.49980000
H       -1.32390000      -2.50420000      -1.27010000
H       -2.12450000       2.20220000      -4.13140000
