15
Properties=species:S:1:pos:R:3 gdb_21944=T pbc="F F F"
O       -0.09130000       1.47070000       0.06030000
C        0.03040000       0.06100000       0.04140000
C       -1.38490000      -0.51080000      -0.10400000
C       -1.41110000      -2.00310000      -0.12180000
C       -1.47290000      -2.93400000      -1.13500000
N       -1.43410000      -4.18730000      -0.60220000
N       -1.35090000      -4.09570000       0.69270000
N       -1.33340000      -2.78040000       0.98980000
H        0.79060000       1.85230000       0.09790000
H        0.65140000      -0.28710000      -0.79760000
H        0.49140000      -0.31860000       0.96780000
H       -2.00170000      -0.11900000       0.71310000
H       -1.81790000      -0.13070000      -1.03350000
H       -1.54770000      -2.77190000      -2.19840000
H       -1.28670000      -2.49630000       1.95580000
