16
Properties=species:S:1:pos:R:3 gdb_45622=T pbc="F F F"
O        0.09340000       0.03110000       0.10370000
C       -0.00390000       1.23420000       0.10290000
C       -1.27280000       2.09890000      -0.01880000
C       -0.73810000       3.50480000      -0.07540000
C        0.59480000       3.46080000       0.05840000
N        1.04450000       2.13850000       0.20650000
C        1.57250000       4.56130000       0.11340000
C        2.66660000       4.58730000       1.10270000
O        2.91960000       4.22440000      -0.25410000
H       -1.83840000       1.79490000      -0.90670000
H       -1.92410000       1.91130000       0.84380000
H       -1.33310000       4.40050000      -0.17110000
H        2.01040000       1.87270000       0.09320000
H        1.21500000       5.51220000      -0.27720000
H        3.07450000       5.54700000       1.41520000
H        2.75110000       3.78090000       1.82870000
