20
Properties=species:S:1:pos:R:3 gdb_10757=T pbc="F F F"
C       -0.17990000       1.64610000       0.05030000
C        0.05600000       0.12450000       0.05630000
C        0.83630000      -0.29940000       1.31080000
C       -1.29690000      -0.61370000       0.02200000
O       -2.06190000      -0.23190000       1.15640000
C        0.78210000      -0.25310000      -1.23010000
C        2.22850000      -0.47310000      -1.34850000
O        1.31780000      -1.57600000      -1.34090000
H        0.77050000       2.18880000       0.07710000
H       -0.72280000       1.96080000      -0.84860000
H       -0.77400000       1.94030000       0.91800000
H        0.19330000      -0.21330000       2.18900000
H        1.16870000      -1.33800000       1.22350000
H        1.71410000       0.33430000       1.46970000
H       -1.82650000      -0.35760000      -0.91060000
H       -1.11010000      -1.69760000       0.01230000
H       -2.86280000      -0.76280000       1.17120000
H        0.26410000       0.07450000      -2.13550000
H        2.72280000      -0.28410000      -2.30070000
H        2.86810000      -0.39470000      -0.47260000
