23
Properties=species:S:1:pos:R:3 gdb_95225=T pbc="F F F"
C        0.14400000       1.67560000      -0.01800000
C       -0.03210000       0.15390000       0.04800000
C        0.37530000      -0.50620000      -1.29710000
C        0.56570000      -2.03340000      -1.23100000
C       -0.50170000      -2.76550000      -0.43560000
C       -0.09510000      -3.91070000       0.46090000
C       -0.52830000      -2.59420000       1.06990000
C        0.45240000      -1.66960000       1.70930000
C        0.68770000      -0.44100000       1.24340000
H        1.20090000       1.94170000      -0.13910000
H       -0.40430000       2.10070000      -0.86520000
H       -0.21940000       2.15890000       0.89490000
H       -1.10120000      -0.05170000       0.18470000
H       -0.39110000      -0.25050000      -2.03980000
H        1.30870000      -0.05500000      -1.65770000
H        0.61450000      -2.43960000      -2.24870000
H        1.53830000      -2.24330000      -0.77530000
H       -1.46860000      -2.85190000      -0.92510000
H       -0.76050000      -4.76130000       0.56180000
H        0.96020000      -4.16380000       0.49620000
H       -1.51100000      -2.61480000       1.53980000
H        0.98460000      -2.02750000       2.58930000
H        1.42670000       0.18630000       1.73960000
