17
Properties=species:S:1:pos:R:3 gdb_20153=T pbc="F F F"
C       -0.06210000       1.58340000       0.00250000
C        1.45970000       1.81290000       0.03200000
C        1.92020000       0.98840000       1.24410000
C        1.11860000      -0.24690000       1.03840000
C        0.03330000       0.03770000      -0.03720000
C        0.84850000      -0.16470000      -1.33840000
C        2.05230000       0.62760000      -0.83630000
N        2.47930000      -0.12030000       0.41390000
H       -0.54770000       1.96400000       0.90670000
H       -0.56550000       1.99900000      -0.87710000
H        1.84490000       2.81960000      -0.11160000
H        2.37610000       1.31950000       2.17120000
H        1.01920000      -1.01750000       1.79230000
H       -0.89290000      -0.52510000       0.06790000
H        1.11250000      -1.20750000      -1.53520000
H        0.35980000       0.26290000      -2.21900000
H        2.87970000       0.82850000      -1.51410000
