16
Properties=species:S:1:pos:R:3 gdb_76025=T pbc="F F F"
N       -0.14710000       1.47090000      -0.05190000
C       -0.06750000       0.04310000      -0.02740000
C       -0.47290000      -0.67330000       1.24240000
C       -0.90780000       0.05880000       2.38910000
C       -1.27770000       0.67050000       3.35720000
C       -1.40170000      -0.71140000      -0.01550000
N       -2.59810000       0.05920000      -0.09000000
C       -1.43580000      -1.98560000      -0.69600000
N       -1.43420000      -3.01720000      -1.21980000
H        0.32230000       1.88670000       0.74450000
H        0.24380000       1.85210000      -0.90420000
H        0.73130000      -0.43850000      -0.58750000
H        0.06720000      -1.59200000       1.44950000
H       -1.60080000       1.20110000       4.21850000
H       -3.21600000      -0.13660000       0.69060000
H       -2.33990000       1.04330000      -0.05650000
