18
Properties=species:S:1:pos:R:3 gdb_55265=T pbc="F F F"
C       -0.00900000       1.35550000       0.88710000
C        0.01430000       0.00390000       0.25120000
C       -0.55310000      -0.40270000      -0.88090000
C       -0.26460000      -1.85840000      -1.12030000
O        0.51910000      -2.26980000       0.00430000
C        0.74850000      -1.15740000       0.87220000
C       -1.55620000      -2.68300000      -1.27860000
N       -1.75550000      -3.59940000      -0.30080000
O       -2.30740000      -2.48020000      -2.21290000
H        1.00580000       1.75550000       1.00650000
H       -0.58720000       2.06650000       0.29240000
H       -0.44900000       1.31300000       1.89130000
H       -1.15870000       0.17940000      -1.56170000
H        0.30830000      -2.01830000      -2.04670000
H        1.83090000      -0.97090000       0.95630000
H        0.38140000      -1.39200000       1.88360000
H       -1.02850000      -3.75600000       0.37690000
H       -2.54450000      -4.22040000      -0.36590000
