21
Properties=species:S:1:pos:R:3 gdb_103101=T pbc="F F F"
C       -0.23310000       1.55440000      -0.06960000
C        0.12880000       0.07200000       0.09300000
C        0.73460000      -0.52910000      -1.15990000
O        1.91850000       0.09020000      -1.59190000
C        0.72060000      -1.99560000      -1.44160000
C        0.13060000      -3.03280000      -0.51520000
C       -0.16610000      -1.06260000      -2.28790000
C       -1.59140000      -1.07880000      -2.16770000
C       -2.79200000      -1.08770000      -2.06970000
H        0.65060000       2.16510000      -0.28630000
H       -0.95810000       1.69380000      -0.87780000
H       -0.67500000       1.94870000       0.84980000
H        0.84770000      -0.04710000       0.91300000
H       -0.77000000      -0.48590000       0.36740000
H        1.70620000       0.99610000      -1.84250000
H        1.60690000      -2.32100000      -1.97910000
H       -0.82860000      -2.71630000      -0.10010000
H       -0.04330000      -3.96860000      -1.05610000
H        0.81140000      -3.24770000       0.31540000
H        0.21170000      -0.86060000      -3.28600000
H       -3.85050000      -1.09340000      -1.98970000
