22
Properties=species:S:1:pos:R:3 gdb_86044=T pbc="F F F"
C       -0.05570000       1.55780000       0.08720000
C        0.04770000       0.04130000       0.06320000
C        1.06900000      -0.62080000      -0.90360000
C        1.44050000      -1.64470000       0.20790000
C        2.91460000      -1.97940000       0.41040000
C        0.76580000      -0.68230000       1.23620000
N        0.64440000      -2.86330000       0.02180000
C        0.42400000      -3.78720000       0.99140000
O        0.80080000      -3.70340000       2.14310000
H        0.92800000       2.01660000       0.24180000
H       -0.46040000       1.94680000      -0.85410000
H       -0.71130000       1.89790000       0.89640000
H       -0.94440000      -0.39600000      -0.08940000
H        0.70180000      -1.02110000      -1.85510000
H        1.91410000       0.04170000      -1.11420000
H        3.50160000      -1.06510000       0.54010000
H        3.03850000      -2.60220000       1.29990000
H        3.31320000      -2.52230000      -0.45410000
H        1.51560000      -0.03780000       1.70570000
H        0.16380000      -1.14730000       2.01590000
H        0.34250000      -3.09130000      -0.91290000
H       -0.16560000      -4.64740000       0.61170000
