19
Properties=species:S:1:pos:R:3 gdb_76037=T pbc="F F F"
C       -0.19330000       1.37660000      -0.10770000
C        0.10280000      -0.09480000       0.05870000
C        1.48920000      -0.66220000      -0.11260000
C        2.62010000       0.17390000      -0.37310000
C        3.57500000       0.87060000      -0.60060000
C        0.81530000      -0.63990000       1.29020000
C        1.33220000       0.26840000       2.38540000
C        0.35500000      -1.98820000       1.73030000
O       -0.10710000      -2.83050000       0.99640000
H        0.65330000       2.00270000       0.18080000
H       -0.42170000       1.59570000      -1.15580000
H       -1.06130000       1.67070000       0.49130000
H       -0.67230000      -0.76690000      -0.29970000
H        1.53060000      -1.65590000      -0.54940000
H        4.42080000       1.47750000      -0.80980000
H        1.92040000       1.09390000       1.98250000
H        0.51030000       0.68850000       2.97520000
H        1.98240000      -0.28870000       3.06890000
H        0.47130000      -2.18370000       2.81980000
