20
Properties=species:S:1:pos:R:3 gdb_85880=T pbc="F F F"
C       -0.28670000       1.49980000      -0.01040000
C       -0.03420000      -0.00260000      -0.03900000
C        1.17540000      -0.44920000      -0.91190000
C        2.04530000      -0.61220000       0.37240000
C        2.92410000      -1.84560000       0.50040000
O        2.76480000       0.56850000       0.68230000
C        0.72130000      -0.58700000       1.21060000
C        0.70330000       0.14660000       2.46290000
N        0.65890000       0.72690000       3.46200000
H        0.63580000       2.04760000       0.19770000
H       -0.67610000       1.83310000      -0.97840000
H       -1.01830000       1.76340000       0.75960000
H       -0.96470000      -0.53540000      -0.24990000
H        1.00390000      -1.39770000      -1.42810000
H        1.54830000       0.28600000      -1.62960000
H        3.74260000      -1.80870000      -0.22920000
H        3.36240000      -1.89750000       1.50160000
H        2.35790000      -2.76350000       0.31510000
H        3.49930000       0.64180000       0.06280000
H        0.39320000      -1.61230000       1.40390000
