23
Properties=species:S:1:pos:R:3 gdb_87890=T pbc="F F F"
C        0.21010000       1.52920000      -0.35260000
C        0.11970000       0.04120000      -0.09510000
C        1.36700000      -0.79960000       0.03690000
C        0.48130000      -0.56630000       1.23920000
C        0.98220000       0.27730000       2.42520000
C        0.64640000      -0.57970000       3.61850000
C       -0.06490000      -1.66460000       3.30610000
C       -0.58840000      -2.70730000       4.24250000
C       -0.33740000      -1.73090000       1.81880000
H        1.07900000       1.97130000       0.14490000
H        0.30530000       1.73580000      -1.42450000
H       -0.68090000       2.05630000       0.00830000
H       -0.71360000      -0.44280000      -0.60150000
H        1.38030000      -1.78930000      -0.40990000
H        2.32420000      -0.28540000       0.00730000
H        2.05590000       0.49660000       2.35750000
H        0.47740000       1.25290000       2.48530000
H        0.94360000      -0.30950000       4.62690000
H       -0.31110000      -2.49610000       5.27900000
H       -1.68300000      -2.77440000       4.19030000
H       -0.20570000      -3.70310000       3.98340000
H       -1.41450000      -1.62310000       1.61750000
H       -0.04620000      -2.69950000       1.38970000
