15
Properties=species:S:1:pos:R:3 gdb_32304=T pbc="F F F"
C        0.07680000       1.39320000       0.00700000
O       -0.01850000      -0.01980000       0.00310000
C       -1.25190000      -0.55990000       0.01070000
C       -2.43840000       0.10480000       0.02200000
C       -3.66590000      -0.63410000       0.02890000
C       -3.61520000      -1.97660000       0.02390000
O       -2.44740000      -2.65620000       0.01260000
C       -1.20590000      -2.03140000       0.00530000
O       -0.21800000      -2.71120000      -0.00460000
H        1.14220000       1.62450000      -0.00050000
H       -0.39830000       1.82820000      -0.88190000
H       -0.38450000       1.82240000       0.90600000
H       -2.47110000       1.18710000       0.02600000
H       -4.62140000      -0.12730000       0.03790000
H       -4.46810000      -2.64260000       0.02810000
