17
Properties=species:S:1:pos:R:3 gdb_38908=T pbc="F F F"
C       -0.04350000       1.48170000       0.20890000
C        1.27600000       0.79100000       0.03160000
O        2.00750000       0.49000000       1.20530000
C        1.56560000      -0.81070000       1.63420000
O        1.60900000      -1.01860000       3.01100000
C        0.31030000      -1.45190000       3.45310000
C       -0.61630000      -1.20020000       2.28670000
C        0.11190000      -0.82310000       1.24310000
C       -0.00420000      -0.03000000      -0.00610000
H       -0.29000000       1.84930000       1.19810000
H       -0.41220000       2.08220000      -0.61700000
H        1.88760000       0.97100000      -0.84640000
H        2.19950000      -1.55930000       1.12810000
H        0.36760000      -2.50660000       3.76160000
H        0.01220000      -0.86800000       4.33440000
H       -1.69470000      -1.21780000       2.37910000
H       -0.39980000      -0.44950000      -0.92300000
