19
Properties=species:S:1:pos:R:3 gdb_82393=T pbc="F F F"
C       -0.56700000       1.50040000       0.06090000
C       -0.12840000       0.06130000      -0.00460000
C        0.00590000      -0.59180000      -1.16070000
C        0.41550000      -2.02870000      -1.31510000
C        0.88140000      -2.67070000      -0.03260000
O        1.99290000      -2.05620000       0.63080000
C        0.70060000      -1.99060000       1.25570000
C        0.13790000      -0.58780000       1.34040000
O        1.01130000       0.21290000       2.14070000
H        0.17390000       2.10990000       0.58670000
H       -0.72470000       1.91550000      -0.93770000
H       -1.50400000       1.59980000       0.62470000
H       -0.20710000      -0.06280000      -2.08780000
H       -0.42600000      -2.61680000      -1.71060000
H        1.20980000      -2.11630000      -2.06980000
H        0.92780000      -3.76000000      -0.03760000
H        0.62190000      -2.57850000       2.16960000
H       -0.80200000      -0.62290000       1.90870000
H        1.88600000       0.11950000       1.74160000
