18
Properties=species:S:1:pos:R:3 gdb_66430=T pbc="F F F"
C       -0.00240000       1.49890000       0.02960000
C       -0.03510000       0.01240000      -0.08350000
C        0.89200000      -0.96210000      -0.72630000
N        0.79950000      -0.89760000       0.78210000
C       -0.32810000      -1.93500000       0.72960000
C       -0.62480000      -2.91230000       1.81050000
C       -1.20020000      -1.01250000      -0.11470000
C       -0.24170000      -2.03260000      -0.76300000
O       -0.49880000      -3.11460000      -1.55700000
H        1.03130000       1.84150000       0.13910000
H       -0.43090000       1.97450000      -0.85970000
H       -0.56700000       1.83920000       0.90470000
H        1.83510000      -0.83460000      -1.24760000
H       -0.90480000      -2.40160000       2.73810000
H       -1.45100000      -3.56610000       1.51360000
H        0.24910000      -3.54010000       2.01640000
H       -2.27620000      -0.93150000      -0.19040000
H       -0.89480000      -2.80990000      -2.38200000
