14
Properties=species:S:1:pos:R:3 gdb_15097=T pbc="F F F"
C        0.05870000      -3.72920000       0.19750000
C        0.04010000      -2.52570000       0.10170000
C        0.01680000      -1.16950000      -0.00740000
C       -0.00620000       0.03630000      -0.10270000
C       -0.01610000       1.48630000      -0.23060000
C        1.38070000       2.08900000      -0.26190000
C        1.63000000       3.45070000       0.22280000
O        2.00780000       2.30880000       0.99590000
H        0.07740000      -4.78720000       0.28380000
H       -0.54430000       1.76890000      -1.15190000
H       -0.57040000       1.93320000       0.60390000
H        2.03890000       1.67910000      -1.02810000
H        2.45210000       4.03170000      -0.19170000
H        0.80520000       4.03600000       0.62800000
