12
Properties=species:S:1:pos:R:3 gdb_132078=T pbc="F F F"
O       -0.04700000       1.38620000       0.01100000
C        0.00440000       0.03780000       0.00350000
C        1.14350000      -0.69170000      -0.00710000
F        2.31830000      -0.05610000      -0.01070000
N        1.20910000      -2.05200000      -0.01470000
C        0.08480000      -2.65680000      -0.01130000
O       -1.12660000      -2.07310000      -0.00100000
C       -1.26570000      -0.67150000       0.00730000
N       -2.40150000      -0.12180000       0.01700000
H        0.85990000       1.71850000       0.00730000
H        0.01080000      -3.73820000      -0.01660000
H       -3.14890000      -0.81540000       0.01770000
