19
Properties=species:S:1:pos:R:3 gdb_83207=T pbc="F F F"
C        0.01920000       1.58550000      -0.39700000
C        0.04670000       0.10530000      -0.07250000
C        1.21690000      -0.82640000      -0.29790000
C        2.61800000      -0.25050000      -0.41640000
N        2.73070000       0.67760000       0.71730000
C        1.88240000       0.19170000       1.81040000
C        1.45260000       1.30380000       2.67750000
N        1.12240000       2.15440000       3.38640000
C        0.73770000      -0.53770000       1.11050000
H        0.97960000       2.06560000      -0.20760000
H       -0.24120000       1.73370000      -1.45090000
H       -0.74020000       2.09390000       0.20590000
H       -0.90340000      -0.38350000      -0.28040000
H        1.03940000      -1.78920000      -0.76300000
H        3.34490000      -1.07840000      -0.37650000
H        2.78850000       0.29370000      -1.35340000
H        3.68420000       0.84770000       1.00950000
H        2.38640000      -0.53820000       2.46830000
H        0.20260000      -1.26880000       1.70420000
