21
Properties=species:S:1:pos:R:3 gdb_84804=T pbc="F F F"
C       -0.03230000       1.61720000      -0.05450000
C        0.01400000       0.07820000      -0.00760000
C        0.83270000      -0.47980000      -1.15120000
C        1.99920000      -0.97940000      -0.74940000
C        2.17250000      -0.88710000       0.74660000
C        0.74450000      -0.53420000       1.23900000
C        0.67470000       0.30380000       2.49490000
C        1.69370000       0.27190000       3.55220000
O        1.60970000       1.37720000       2.64870000
H        0.96820000       2.04730000       0.04140000
H       -0.45730000       1.95380000      -1.00600000
H       -0.65250000       2.02740000       0.74860000
H       -1.02070000      -0.28720000      -0.04650000
H        0.50460000      -0.40280000      -2.18270000
H        2.76760000      -1.38190000      -1.40040000
H        2.54420000      -1.81720000       1.19120000
H        2.88980000      -0.09860000       1.01090000
H        0.23110000      -1.47690000       1.46910000
H       -0.33850000       0.57010000       2.80430000
H        1.41220000       0.48960000       4.58160000
H        2.57450000      -0.35710000       3.43670000
