19
Properties=species:S:1:pos:R:3 gdb_62867=T pbc="F F F"
C       -0.07690000       1.58030000       0.01610000
C       -0.06010000       0.05180000      -0.00580000
O       -1.40390000      -0.28990000      -0.17840000
C        1.05610000      -0.58970000      -0.92120000
C        2.05180000      -0.26130000       0.25230000
C        0.80000000      -0.62180000       1.13490000
C        0.75630000      -2.12800000       0.79990000
O       -0.29970000      -2.59080000      -0.07690000
C        0.93730000      -2.10530000      -0.65380000
H        0.89630000       2.05200000       0.14530000
H       -0.51410000       1.93560000      -0.92140000
H       -0.73280000       1.90790000       0.82800000
H       -1.43530000      -1.25770000      -0.19740000
H        1.22320000      -0.26230000      -1.94720000
H        2.91190000      -0.92840000       0.34910000
H        2.38350000       0.77300000       0.30970000
H        0.70910000      -0.32680000       2.18010000
H        1.15760000      -2.87920000       1.47120000
H        1.49340000      -2.83730000      -1.22890000
