18
Properties=species:S:1:pos:R:3 gdb_16053=T pbc="F F F"
C       -0.04210000       1.55320000       0.03950000
C        0.08740000       0.04520000       0.07590000
C        1.32110000      -0.73250000      -0.22100000
C        2.59620000      -0.06790000       0.31570000
C        1.98790000      -0.03580000       1.75300000
C        0.72050000      -0.71630000       1.22990000
C        0.03270000      -1.82880000       1.88630000
O        0.28070000      -2.23380000       2.99930000
H        0.85670000       2.05990000       0.39780000
H       -0.22740000       1.89360000      -0.98490000
H       -0.88060000       1.88500000       0.66020000
H       -0.80400000      -0.46720000      -0.28560000
H        1.30480000      -1.57030000      -0.90860000
H        3.46460000      -0.72550000       0.25000000
H        2.85710000       0.89370000      -0.13660000
H        2.51980000      -0.67940000       2.45490000
H        1.85340000       0.94600000       2.21500000
H       -0.75770000      -2.30900000       1.26100000
