15
Properties=species:S:1:pos:R:3 gdb_87672=T pbc="F F F"
O       -0.05350000       1.36680000      -0.07030000
C        0.03000000      -0.01190000       0.03240000
C       -0.40070000      -0.73370000       1.28150000
C       -1.26350000      -0.81600000       0.03530000
O       -2.43050000      -0.02510000       0.02630000
C       -3.39910000      -0.65390000      -0.75600000
O       -4.47580000      -0.16580000      -0.93750000
C       -2.80470000      -1.91800000      -1.23330000
C       -1.55390000      -2.00820000      -0.76480000
H       -0.98990000       1.60410000      -0.10000000
H        0.87030000      -0.41520000      -0.52560000
H        0.13280000      -1.62720000       1.58780000
H       -0.80820000      -0.13040000       2.08520000
H       -3.34650000      -2.60690000      -1.86310000
H       -0.83760000      -2.80280000      -0.92550000
