14
Properties=species:S:1:pos:R:3 gdb_11741=T pbc="F F F"
O        0.06860000       1.41690000       0.22580000
C        0.00810000       0.04300000      -0.10810000
C       -1.37160000      -0.51000000       0.04420000
C       -2.09350000      -1.00380000       1.23850000
C       -1.95300000      -1.90500000      -0.00440000
C       -2.84240000      -1.33840000      -1.07680000
O       -3.64140000      -1.72180000      -1.86500000
O       -2.36550000      -0.03670000      -0.92360000
H       -0.50070000       1.88930000      -0.39200000
H        0.35950000      -0.14300000      -1.13370000
H        0.68280000      -0.47730000       0.57890000
H       -1.47990000      -1.32010000       2.07690000
H       -3.05940000      -0.58500000       1.49990000
H       -1.49820000      -2.88440000       0.01820000
