17
Properties=species:S:1:pos:R:3 gdb_69753=T pbc="F F F"
C       -0.01780000       1.56340000       0.07660000
C        0.09930000       0.07410000       0.00310000
N       -0.84120000      -0.83910000       0.67560000
C        0.60880000      -0.95080000       0.97020000
C        1.24010000      -1.76130000      -0.18510000
O        0.40820000      -2.80050000      -0.77950000
C       -0.10460000      -1.90630000      -1.71380000
N       -0.90300000      -2.08990000      -2.66030000
C        0.70340000      -0.72900000      -1.19420000
H        0.90930000       2.04990000      -0.24400000
H       -0.82670000       1.92430000      -0.56870000
H       -0.23230000       1.88750000       1.10090000
H       -1.26080000      -0.32870000       1.45250000
H        0.98000000      -0.85140000       1.98300000
H        2.28360000      -2.05810000      -0.09380000
H       -1.22750000      -3.05810000      -2.68930000
H        1.33700000      -0.17990000      -1.88690000
