19
Properties=species:S:1:pos:R:3 gdb_74477=T pbc="F F F"
C        0.00770000       1.49470000       0.07220000
C       -0.01480000       0.00180000      -0.00250000
C       -0.02030000      -0.76400000      -1.10090000
C       -0.05400000      -2.21550000      -0.75750000
C       -0.69700000      -3.24370000      -1.59110000
O        0.72520000      -3.13310000      -1.54820000
C        0.02420000      -2.28670000       0.74870000
C        1.25810000      -1.70210000       1.39420000
C        0.01370000      -0.85250000       1.23330000
H        0.89050000       1.84730000       0.62010000
H        0.01420000       1.94910000      -0.92180000
H       -0.86700000       1.87520000       0.61500000
H        0.03560000      -0.41500000      -2.12530000
H       -1.11350000      -4.13320000      -1.11670000
H       -1.16480000      -2.96340000      -2.53500000
H       -0.51320000      -3.06960000       1.26960000
H        1.49830000      -2.05880000       2.39040000
H        2.11500000      -1.47800000       0.76800000
H       -0.53560000      -0.54510000       2.11670000
