19
Properties=species:S:1:pos:R:3 gdb_121048=T pbc="F F F"
C        0.45800000       1.39820000      -0.04980000
C        0.16270000      -0.09000000      -0.01180000
O        0.72880000      -0.68680000      -1.17970000
C        0.47910000      -2.04460000      -1.31370000
C        1.10600000      -2.53650000      -2.62360000
C        2.51570000      -2.93560000      -2.18100000
C        2.34860000      -3.26470000      -0.70130000
O        3.10060000      -3.83860000       0.02790000
O        1.13480000      -2.79580000      -0.27490000
H        1.53700000       1.57580000      -0.05840000
H        0.02680000       1.85680000      -0.94420000
H        0.03430000       1.88840000       0.83150000
H        0.58880000      -0.55470000       0.88560000
H       -0.92310000      -0.27540000       0.00070000
H       -0.59110000      -2.26280000      -1.20430000
H        0.55150000      -3.40350000      -2.99220000
H        1.07510000      -1.75250000      -3.38020000
H        2.94260000      -3.78970000      -2.70780000
H        3.22300000      -2.10440000      -2.26320000
