19
Properties=species:S:1:pos:R:3 gdb_44100=T pbc="F F F"
O        0.00460000       0.07390000       0.24890000
C       -0.01340000       1.26910000       0.13400000
C       -1.28620000       2.14890000       0.06590000
C       -0.71540000       3.52880000      -0.04050000
C        0.62130000       3.54710000      -0.05940000
C        1.18380000       4.93040000      -0.22320000
C       -0.07830000       5.83010000      -0.03990000
C       -1.31990000       4.89610000      -0.18780000
C        1.23240000       2.18330000       0.03030000
H       -1.89900000       1.84480000      -0.79380000
H       -1.90630000       1.97650000       0.95550000
H        1.97010000       5.16890000       0.50270000
H        1.63950000       5.05630000      -1.21570000
H       -0.07000000       6.26400000       0.96410000
H       -0.09970000       6.66340000      -0.74610000
H       -1.80680000       5.00910000      -1.16700000
H       -2.09170000       5.11340000       0.56020000
H        1.88190000       2.02840000       0.90200000
H        1.82870000       1.89580000      -0.84650000
