14
Properties=species:S:1:pos:R:3 gdb_29062=T pbc="F F F"
N        0.02440000       1.25500000       0.50520000
C       -0.01770000      -0.01210000       0.08380000
N       -1.16760000      -0.60760000      -0.08640000
C       -1.29200000      -1.91850000      -0.39550000
N       -0.53560000      -2.94980000      -0.14640000
C        0.71120000      -2.82370000       0.39150000
N        1.58420000      -1.87100000       0.33270000
C        1.33560000      -0.61980000      -0.19630000
N        2.19400000       0.13500000      -0.76590000
H        0.89250000       1.75570000       0.39090000
H       -0.83960000       1.75530000       0.64100000
H       -2.24690000      -2.15030000      -0.86980000
H        1.04850000      -3.72710000       0.90230000
H        3.07770000      -0.36980000      -0.86540000
