18
Properties=species:S:1:pos:R:3 gdb_46360=T pbc="F F F"
O       -0.03730000       0.08690000      -0.45260000
C        0.01210000       1.21520000      -0.07080000
C       -0.97210000       2.20130000       0.57380000
N        0.09430000       3.24620000       0.54560000
C        1.09230000       2.32460000      -0.07620000
C        2.29510000       2.03790000       0.80820000
C        3.00580000       3.25500000       1.44290000
C        2.50230000       2.67000000       2.77660000
O        1.88690000       1.54850000       2.10470000
H       -1.86420000       2.40290000      -0.03130000
H       -1.28280000       1.93020000       1.58830000
H       -0.14670000       4.01590000      -0.06700000
H        1.42830000       2.60150000      -1.08500000
H        2.94990000       1.31720000       0.30050000
H        4.08860000       3.27860000       1.31400000
H        2.57780000       4.22170000       1.17560000
H        3.27760000       2.34350000       3.47970000
H        1.76160000       3.27900000       3.30550000
