23
Properties=species:S:1:pos:R:3 gdb_78287=T pbc="F F F"
C       -0.06460000       1.45270000      -0.00630000
C        0.01730000      -0.06060000       0.01890000
C        1.37850000      -0.66670000      -0.20610000
C        0.75230000      -0.67740000       1.18080000
C        0.81000000      -2.23440000       1.19710000
C        1.19850000      -2.98590000       2.43740000
C        0.08770000      -2.86220000       0.02880000
C        1.43800000      -2.22360000      -0.19360000
C        2.62960000      -2.96120000      -0.73210000
H        0.84280000       1.90640000       0.40690000
H       -0.18580000       1.82380000      -1.02980000
H       -0.91460000       1.81120000       0.58430000
H       -0.86740000      -0.54300000      -0.38430000
H        2.21260000      -0.06790000      -0.55410000
H        1.03940000      -0.08810000       2.04420000
H        0.38920000      -2.97620000       3.17900000
H        1.42760000      -4.03290000       2.21430000
H        2.08310000      -2.54420000       2.91230000
H        0.12130000      -3.94920000       0.03560000
H       -0.83700000      -2.47520000      -0.38570000
H        2.65070000      -2.93730000      -1.82930000
H        3.56830000      -2.51860000      -0.37680000
H        2.61990000      -4.01240000      -0.42620000
