16
Properties=species:S:1:pos:R:3 gdb_39571=T pbc="F F F"
C        0.02350000       1.51660000      -0.10750000
O        1.26070000       2.13910000       0.29340000
C        2.27820000       1.22020000       0.10580000
O        3.59460000       1.69920000       0.41240000
C        4.22000000       0.53590000       0.78870000
N        3.52610000      -0.49310000       1.07560000
C        2.14370000       0.03270000       1.03940000
C        0.93420000      -0.73110000       0.59560000
C       -0.05300000       0.01260000       0.08840000
H       -0.76020000       2.01760000       0.47140000
H       -0.16570000       1.74510000      -1.16960000
H        2.30400000       0.88290000      -0.94650000
H        5.30180000       0.59920000       0.81520000
H        1.94510000       0.42370000       2.05090000
H        0.85690000      -1.80510000       0.72400000
H       -0.98970000      -0.43450000      -0.23360000
