19
Properties=species:S:1:pos:R:3 gdb_84616=T pbc="F F F"
C       -0.17480000       1.61020000      -0.16810000
C        0.00710000       0.08890000      -0.05040000
C        0.84840000      -0.52680000      -1.15340000
C        1.82090000      -1.31270000      -0.68700000
C        1.87040000      -1.31800000       0.80170000
C        2.16300000      -0.00430000       1.45750000
C        0.71110000      -0.38010000       1.22830000
C       -0.08760000      -0.75680000       2.41470000
O        0.36890000      -1.08310000       3.48620000
H        0.78710000       2.12990000      -0.12540000
H       -0.65580000       1.87240000      -1.11600000
H       -0.80290000       1.99370000       0.64210000
H       -0.99810000      -0.36340000      -0.07240000
H        0.65750000      -0.31880000      -2.20070000
H        2.52320000      -1.87520000      -1.29180000
H        2.05830000      -2.22920000       1.35890000
H        2.46960000      -0.02730000       2.49750000
H        2.58700000       0.78660000       0.84890000
H       -1.18990000      -0.73590000       2.24840000
