17
Properties=species:S:1:pos:R:3 gdb_12247=T pbc="F F F"
C        0.18750000       1.53430000       0.04380000
C        0.10860000       0.00480000       0.03080000
C        0.46180000      -0.58450000      -1.31950000
O        1.88160000      -0.37530000      -1.66170000
C        2.15300000      -1.72030000      -1.63620000
O        3.21220000      -2.25360000      -1.73090000
C        0.67640000      -2.11990000      -1.41790000
N        0.26870000      -2.96230000      -0.31990000
H        1.19360000       1.87180000      -0.22100000
H       -0.51380000       1.97270000      -0.67450000
H       -0.05600000       1.93040000       1.03370000
H        0.78180000      -0.40760000       0.79230000
H       -0.90060000      -0.33640000       0.28930000
H       -0.15940000      -0.15840000      -2.11320000
H        0.25640000      -2.51990000      -2.34510000
H        0.33280000      -3.93960000      -0.58130000
H        0.87000000      -2.83590000       0.48730000
