19
Properties=species:S:1:pos:R:3 gdb_99338=T pbc="F F F"
C       -0.09770000       1.42260000       0.19110000
C        0.05060000      -0.07550000      -0.06280000
C        0.78540000      -0.38150000      -1.35180000
O        1.22330000       0.43240000      -2.12440000
O        0.89360000      -1.71690000      -1.53620000
C        1.57500000      -2.12900000      -2.73100000
C        1.57740000      -3.65900000      -2.72820000
C        2.24800000      -4.19870000      -3.90360000
C        2.80620000      -4.61640000      -4.88210000
H        0.87970000       1.90770000       0.25220000
H       -0.65050000       1.90400000      -0.61940000
H       -0.63200000       1.60010000       1.12840000
H        0.59040000      -0.57070000       0.75320000
H       -0.92460000      -0.57450000      -0.10950000
H        1.05720000      -1.73210000      -3.60860000
H        2.59250000      -1.72820000      -2.73440000
H        2.06920000      -4.01420000      -1.81480000
H        0.54220000      -4.01810000      -2.68430000
H        3.29730000      -4.99740000      -5.74300000
