22
Properties=species:S:1:pos:R:3 gdb_71124=T pbc="F F F"
C       -0.06320000       1.52530000       0.05410000
C        0.01360000       0.00380000      -0.01450000
C        0.56940000      -0.53930000      -1.35270000
C        0.05520000      -1.96720000      -1.36420000
C        0.06760000      -2.68440000      -0.06160000
C        0.79910000      -2.12440000       1.14640000
C        0.87270000      -0.57520000       1.12910000
N       -1.17950000      -2.05120000      -0.53920000
C       -1.36410000      -0.70100000       0.03140000
H        0.93340000       1.97750000      -0.00520000
H       -0.66260000       1.92930000      -0.76930000
H       -0.51890000       1.85730000       0.99390000
H        0.15470000       0.01390000      -2.20420000
H        1.66100000      -0.46850000      -1.41220000
H        0.05110000      -2.52340000      -2.29740000
H        0.01450000      -3.77120000      -0.08910000
H        0.28590000      -2.47270000       2.05070000
H        1.80180000      -2.56400000       1.18690000
H        1.90830000      -0.23720000       1.00730000
H        0.52530000      -0.16980000       2.08600000
H       -1.77160000      -0.76670000       1.04680000
H       -2.09910000      -0.17430000      -0.58860000
