12
Properties=species:S:1:pos:R:3 gdb_1004=T pbc="F F F"
C       -0.03400000       1.45740000       0.00950000
N       -0.04030000       0.01110000       0.00120000
C       -1.14650000      -0.83870000       0.00430000
C       -0.67160000      -2.08930000      -0.00670000
O        0.70510000      -2.06410000      -0.01660000
C        1.11500000      -0.74390000      -0.01110000
O        2.26210000      -0.38260000      -0.01790000
H        1.01040000       1.77310000       0.00250000
H       -0.53780000       1.85970000      -0.87550000
H       -0.52270000       1.84940000       0.90770000
H       -2.15740000      -0.46890000       0.01360000
H       -1.14230000      -3.05600000      -0.00930000
