17
Properties=species:S:1:pos:R:3 gdb_28339=T pbc="F F F"
C        0.05330000       1.51530000       0.00380000
C       -0.10030000       0.03370000       0.06520000
C       -1.18630000      -0.69850000      -0.24140000
C       -1.14860000      -2.12780000      -0.13230000
C       -0.01240000      -2.75150000       0.28050000
N        0.18520000      -4.11140000       0.37020000
C        1.15570000      -1.94150000       0.64000000
N        2.22440000      -2.48380000       1.07720000
O        1.04770000      -0.58230000       0.49590000
H        0.85770000       1.80050000      -0.68440000
H       -0.87520000       1.97830000      -0.33610000
H        0.30990000       1.92720000       0.98690000
H       -2.08560000      -0.19770000      -0.57580000
H       -2.02800000      -2.70850000      -0.39070000
H       -0.63170000      -4.68420000       0.51030000
H        0.99450000      -4.36090000       0.92280000
H        2.93310000      -1.78300000       1.28880000
