17
Properties=species:S:1:pos:R:3 gdb_80742=T pbc="F F F"
O       -0.05960000       1.46060000      -0.07270000
C        0.01510000       0.07960000       0.03370000
C       -1.25240000      -0.76360000       0.11550000
C       -2.56520000      -0.06210000      -0.22710000
C       -2.58360000      -0.03530000      -1.78150000
N       -1.14990000       0.02710000      -2.13140000
C       -0.41430000      -0.75980000      -1.14390000
C       -3.24330000      -1.23230000      -2.34090000
N       -3.72950000      -2.17280000      -2.80580000
H       -0.32860000       1.63080000      -0.99090000
H        0.86450000      -0.25230000       0.62350000
H       -1.26870000      -1.62560000       0.77070000
H       -3.43380000      -0.58300000       0.17620000
H       -2.56700000       0.96590000       0.14640000
H       -3.10540000       0.84590000      -2.16820000
H       -0.96090000      -0.26010000      -3.08290000
H        0.15030000      -1.61770000      -1.49140000
