25
Properties=species:S:1:pos:R:3 gdb_109666=T pbc="F F F"
C       -2.16370000       0.51130000       2.29350000
C       -1.35620000      -0.41760000       1.37490000
C       -0.00380000      -0.84150000       1.94090000
C        0.94820000       0.31790000       2.19540000
C        0.10400000      -2.02420000       2.88850000
C       -1.08310000      -2.82620000       3.38500000
C        0.64650000      -2.13300000       1.46980000
C        0.05770000      -3.06590000       0.43540000
O        0.64130000      -4.36310000       0.49920000
H       -1.64920000       1.46060000       2.46880000
H       -3.13590000       0.74360000       1.84760000
H       -2.34520000       0.04700000       3.26840000
H       -1.96690000      -1.29450000       1.14460000
H       -1.18790000       0.08690000       0.41360000
H        0.56420000       1.00050000       2.96100000
H        1.92320000      -0.04210000       2.53740000
H        1.11180000       0.90140000       1.28100000
H        0.87230000      -1.91170000       3.65110000
H       -1.86580000      -2.94710000       2.63240000
H       -0.77300000      -3.83070000       3.69850000
H       -1.54170000      -2.34670000       4.25670000
H        1.73090000      -2.09340000       1.38720000
H       -1.03600000      -3.12790000       0.51640000
H        0.28060000      -2.69900000      -0.57280000
H        0.52620000      -4.68150000       1.40040000
