18
Properties=species:S:1:pos:R:3 gdb_117069=T pbc="F F F"
C       -0.02310000       1.43890000      -0.02020000
N        0.13850000       0.00240000       0.04550000
C        0.63170000      -0.63980000       1.12340000
O        1.00310000      -0.12880000       2.16820000
C        0.69060000      -2.16810000       0.91210000
O        0.32300000      -2.67230000      -0.12090000
C        1.23830000      -2.93450000       2.09600000
O        1.25310000      -4.29950000       1.81320000
C        1.75480000      -5.07030000       2.88190000
H        0.57130000       1.86710000      -0.83450000
H       -1.07270000       1.71270000      -0.17250000
H        0.31990000       1.85390000       0.92880000
H       -0.11850000      -0.58890000      -0.73260000
H        2.24150000      -2.53390000       2.32540000
H        0.61990000      -2.68640000       2.97680000
H        2.79320000      -4.79930000       3.12850000
H        1.14430000      -4.95430000       3.79090000
H        1.72620000      -6.11530000       2.56600000
