13
Properties=species:S:1:pos:R:3 gdb_133207=T pbc="F F F"
C       -0.03540000       1.46780000      -0.00460000
C       -0.01010000      -0.02850000       0.00100000
N       -0.04690000      -0.65950000      -1.12040000
O       -0.02200000      -2.03640000      -1.07910000
C        0.04110000      -2.76760000       0.12690000
N        0.06090000      -4.02660000       0.09240000
N        0.07960000      -2.05760000       1.31890000
C        0.05500000      -0.79680000       1.23780000
F        0.08990000      -0.07980000       2.34790000
H        0.86030000       1.87140000       0.47850000
H       -0.08490000       1.82850000      -1.03260000
H       -0.90010000       1.84180000       0.55290000
H        0.02580000      -4.36080000      -0.87050000
