16
Properties=species:S:1:pos:R:3 gdb_51257=T pbc="F F F"
O        0.05530000       0.03310000      -0.05100000
C       -0.00690000       1.21790000       0.02210000
O        1.14030000       1.98370000      -0.05920000
C        1.01230000       3.33290000      -0.02220000
N       -0.05880000       4.02390000      -0.02610000
C        0.55680000       5.40400000       0.02920000
C        1.70290000       5.29980000      -1.02080000
C        2.22080000       4.24780000       0.02740000
C        1.66070000       5.23680000       1.11550000
H       -0.90740000       1.82970000       0.16000000
H       -0.18440000       6.19960000       0.03790000
H        1.43890000       4.93730000      -2.01670000
H        2.33560000       6.18850000      -1.07840000
H        3.22240000       3.82410000       0.03480000
H        2.29020000       6.11940000       1.25110000
H        1.35800000       4.81670000       2.07720000
