15
Properties=species:S:1:pos:R:3 gdb_44517=T pbc="F F F"
O        0.00260000       0.08470000       0.54370000
C       -0.01530000       1.17070000       0.05450000
O       -1.17020000       1.81760000      -0.22860000
C       -1.09090000       3.11220000      -0.81260000
C       -0.06330000       3.31190000      -1.95820000
C       -0.07540000       4.81820000      -1.58850000
C       -0.05080000       4.09710000      -0.21550000
C        0.99600000       3.13520000      -0.83790000
O        1.11790000       1.84270000      -0.25640000
H       -2.11670000       3.45030000      -0.95750000
H       -0.07020000       2.85270000      -2.94520000
H        0.81800000       5.38780000      -1.85160000
H       -0.98720000       5.36800000      -1.82970000
H       -0.04350000       4.53230000       0.78230000
H        2.01030000       3.49560000      -1.00760000
