21
Properties=species:S:1:pos:R:3 gdb_74057=T pbc="F F F"
C       -0.01790000       1.49730000       0.03130000
C       -0.00070000       0.00570000      -0.03500000
C       -0.01810000      -0.75780000      -1.13970000
C        0.00800000      -2.18700000      -0.79040000
O        0.00120000      -3.13350000      -1.54710000
C        0.04700000      -2.30300000       0.75480000
C       -1.19410000      -3.08130000       1.22040000
C        1.32830000      -3.05000000       1.15890000
C        0.04030000      -0.82850000       1.22710000
H        0.86630000       1.87120000       0.56250000
H       -0.04410000       1.95200000      -0.96160000
H       -0.88900000       1.84910000       0.59840000
H       -0.04720000      -0.40750000      -2.16430000
H       -1.22410000      -4.06060000       0.73450000
H       -1.17800000      -3.22900000       2.30560000
H       -2.11710000      -2.55010000       0.96380000
H        2.22420000      -2.49630000       0.85790000
H        1.36870000      -3.19730000       2.24350000
H        1.35890000      -4.02850000       0.67160000
H        0.92760000      -0.57710000       1.82280000
H       -0.82300000      -0.59880000       1.86540000
