25
Properties=species:S:1:pos:R:3 gdb_113386=T pbc="F F F"
C        0.34880000       1.54800000      -1.23970000
C        0.33490000       0.32260000      -0.31630000
C       -1.03620000      -0.30500000      -0.24120000
O       -1.46230000      -1.06840000      -1.37730000
C       -1.31520000      -1.75070000      -0.11290000
C       -0.18200000      -2.78080000      -0.03490000
C        0.10440000      -3.49080000      -1.36470000
C       -2.64230000      -2.16750000       0.50370000
C       -3.28910000      -3.37700000      -0.18300000
H        1.34770000       1.99070000      -1.29330000
H        0.04460000       1.26690000      -2.25230000
H       -0.34170000       2.32070000      -0.88460000
H        1.06090000      -0.41320000      -0.67440000
H        0.64440000       0.61320000       0.69660000
H       -1.80730000       0.37470000       0.13480000
H        0.73660000      -2.30150000       0.31930000
H       -0.44440000      -3.52100000       0.72940000
H        0.93980000      -4.18910000      -1.25530000
H       -0.76440000      -4.05580000      -1.71520000
H        0.35480000      -2.76450000      -2.14130000
H       -2.48190000      -2.38360000       1.56840000
H       -3.32940000      -1.31600000       0.45330000
H       -4.26280000      -3.60050000       0.26330000
H       -3.44180000      -3.17610000      -1.24760000
H       -2.67150000      -4.27600000      -0.09230000
