15
Properties=species:S:1:pos:R:3 gdb_70231=T pbc="F F F"
C       -0.04120000       1.53780000       0.01480000
C        0.06520000       0.03750000       0.02040000
C       -0.80110000      -0.84280000       0.90580000
C        0.68400000      -0.84980000       1.10210000
O        1.40020000      -1.86150000       0.40540000
C        1.15180000      -1.61030000      -0.90790000
N        0.45640000      -0.58980000      -1.22530000
C        1.72220000      -2.53820000      -1.83860000
N        2.18450000      -3.28780000      -2.58630000
H        0.89350000       1.99520000      -0.32230000
H       -0.84010000       1.85870000      -0.66050000
H       -0.26920000       1.91370000       1.01620000
H       -1.37300000      -0.33130000       1.67240000
H       -1.28130000      -1.71240000       0.46990000
H        1.17650000      -0.54120000       2.01460000
