15
Properties=species:S:1:pos:R:3 gdb_24035=T pbc="F F F"
N       -0.65010000      -0.27180000       1.69930000
C       -0.31400000       0.36830000       0.79850000
C        0.11670000       1.17940000      -0.33750000
C        1.47200000       1.84800000      -0.16220000
C        2.24850000       1.70590000       0.98320000
C        3.47760000       2.36110000       1.04480000
N        3.96600000       3.12530000       0.06710000
C        3.21180000       3.25500000      -1.02870000
C        1.97350000       2.64550000      -1.19180000
H        0.13190000       0.54020000      -1.22890000
H       -0.65030000       1.94090000      -0.52540000
H        1.91020000       1.09880000       1.81520000
H        4.09840000       2.26180000       1.93210000
H        3.61860000       3.88000000      -1.82020000
H        1.41160000       2.79290000      -2.10900000
