20
Properties=species:S:1:pos:R:3 gdb_94104=T pbc="F F F"
C       -0.36790000       1.30340000       0.02280000
C        0.07970000      -0.13640000      -0.14870000
C        1.20540000      -0.37390000      -1.16370000
C        1.78460000      -1.70970000      -0.69640000
C        1.50940000      -1.68740000       0.82770000
O        0.63940000      -0.59530000       1.08590000
O        1.04980000      -2.75800000      -1.34160000
C        1.66380000      -3.94670000      -1.49040000
N        1.02200000      -4.94240000      -1.92570000
H        0.48300000       1.94160000       0.28100000
H       -0.81970000       1.67580000      -0.90170000
H       -1.10980000       1.38040000       0.82220000
H       -0.78380000      -0.76610000      -0.41770000
H        0.87030000      -0.42310000      -2.20100000
H        1.96000000       0.41390000      -1.06680000
H        2.84940000      -1.82370000      -0.92670000
H        1.05270000      -2.63930000       1.13070000
H        2.42770000      -1.54140000       1.40860000
H        2.72920000      -3.92620000      -1.21830000
H        1.64180000      -5.74570000      -2.00620000
