15
Properties=species:S:1:pos:R:3 gdb_22991=T pbc="F F F"
N        0.02120000       1.26020000       0.29900000
C        0.06240000      -0.06760000      -0.01140000
O        1.05460000      -0.67150000      -0.34710000
C       -1.32940000      -0.72660000       0.01860000
O       -1.29500000      -2.14980000       0.24560000
C       -2.11150000      -2.05360000       1.43930000
C       -2.16270000      -0.55790000       1.26540000
N       -2.59520000       0.47480000       1.84880000
O       -3.28630000       0.15490000       3.02420000
H        0.90150000       1.74790000       0.35660000
H       -0.76760000       1.63700000       0.80380000
H       -1.84550000      -0.47560000      -0.91940000
H       -3.07120000      -2.57500000       1.33910000
H       -1.59380000      -2.41090000       2.33770000
H       -3.56540000       1.01880000       3.34760000
