17
Properties=species:S:1:pos:R:3 gdb_1558=T pbc="F F F"
C       -0.02560000       1.59440000      -0.00900000
C       -0.00750000       0.06470000       0.02760000
C       -1.41160000      -0.54720000      -0.01290000
C       -1.38230000      -2.08340000       0.08560000
O       -0.79030000      -2.51360000       1.28160000
C       -2.78080000      -2.64870000      -0.04040000
O       -3.26580000      -3.35120000       0.81400000
H        0.98920000       2.00270000       0.02020000
H       -0.50850000       1.96730000      -0.91940000
H       -0.57320000       2.00430000       0.84680000
H        0.57560000      -0.32000000      -0.81980000
H        0.49700000      -0.28480000       0.93410000
H       -2.01110000      -0.15920000       0.82080000
H       -1.92220000      -0.25590000      -0.94130000
H       -0.81280000      -2.46910000      -0.78200000
H       -1.45600000      -3.06960000       1.71640000
H       -3.34020000      -2.37810000      -0.95960000
