19
Properties=species:S:1:pos:R:3 gdb_83971=T pbc="F F F"
C        0.30630000       1.68070000       0.09050000
C        0.15180000       0.16680000       0.01460000
C        0.62910000      -0.66420000      -1.22680000
C        1.78990000      -0.11540000      -2.07720000
C        3.05350000      -0.56880000      -1.31780000
O        2.70390000      -1.80650000      -0.69690000
C        1.36480000      -1.68630000      -0.28940000
C        1.09070000      -0.69020000       0.88330000
O        1.55510000      -0.54990000       1.97670000
H        1.33790000       1.99230000      -0.09980000
H       -0.34030000       2.18510000      -0.63430000
H        0.03840000       2.03380000       1.09060000
H       -0.88500000      -0.11040000       0.24760000
H       -0.18210000      -1.05580000      -1.83950000
H        1.76440000      -0.58250000      -3.06560000
H        1.75730000       0.96740000      -2.22080000
H        3.91480000      -0.75350000      -1.96340000
H        3.34530000       0.17040000      -0.55620000
H        0.93730000      -2.68340000      -0.15790000
