15
Properties=species:S:1:pos:R:3 gdb_50457=T pbc="F F F"
O       -0.46630000       0.59670000       0.69020000
C        0.23430000       0.91550000      -0.23380000
C        1.31640000       1.98040000      -0.16970000
C        1.13740000       3.01990000      -1.28350000
O        2.13560000       4.03950000      -1.21290000
C        2.36280000       4.64180000      -0.00650000
O        3.01250000       5.65170000       0.03410000
C        1.83160000       3.95340000       1.19400000
C        1.38330000       2.69760000       1.14690000
H        0.13860000       0.42200000      -1.22720000
H        2.26460000       1.44670000      -0.35820000
H        1.23740000       2.57680000      -2.27710000
H        0.14310000       3.47910000      -1.20380000
H        1.91250000       4.51650000       2.11590000
H        1.05130000       2.16810000       2.03370000
