15
Properties=species:S:1:pos:R:3 gdb_45668=T pbc="F F F"
O       -0.05510000      -0.07130000      -0.25350000
C       -0.07450000       1.11900000      -0.04730000
N       -1.25520000       1.86960000      -0.12110000
C       -1.22920000       3.08330000       0.56210000
C       -0.11770000       3.83460000       0.46020000
C        0.78930000       3.98210000       1.67600000
N        1.78390000       3.08160000       0.96320000
C        1.09030000       3.34020000      -0.33300000
C        1.20390000       1.93720000       0.08580000
H       -2.10150000       1.32700000      -0.21720000
H       -1.95290000       3.22550000       1.36210000
H        1.30340000       4.94100000       1.79060000
H        0.42220000       3.62780000       2.64270000
H        1.57090000       3.81720000      -1.18050000
H        2.05500000       1.34030000      -0.22340000
