13
Properties=species:S:1:pos:R:3 gdb_23883=T pbc="F F F"
C       -0.01520000       1.43900000       0.06470000
N        0.03350000      -0.00650000      -0.05150000
C        0.61890000      -0.59200000      -1.13240000
N        1.04970000       0.06530000      -2.13650000
C        0.62460000      -2.12270000      -1.04930000
F        1.51980000      -2.64710000      -1.88730000
F        0.92350000      -2.54360000       0.19540000
F       -0.57470000      -2.62960000      -1.35980000
H        0.98480000       1.88120000       0.15860000
H       -0.48040000       1.86010000      -0.82940000
H       -0.61160000       1.70290000       0.94010000
H       -0.00800000      -0.55250000       0.79260000
H        1.40820000      -0.56570000      -2.84960000
