16
Properties=species:S:1:pos:R:3 gdb_28160=T pbc="F F F"
C        0.10680000       1.44370000       0.02700000
C       -0.07250000      -0.02930000      -0.00750000
C       -1.15830000      -0.83790000      -0.15920000
C       -0.67850000      -2.19790000      -0.10340000
C        0.67600000      -2.05490000       0.08040000
N        1.30140000      -3.25750000       0.15660000
C        0.30240000      -4.22400000       0.01600000
C       -0.91870000      -3.60900000      -0.14470000
O        1.10020000      -0.78130000       0.14590000
H        0.77240000       1.79290000      -0.77160000
H       -0.86220000       1.93180000      -0.10110000
H        0.53490000       1.78080000       0.97880000
H       -2.16990000      -0.48600000      -0.29390000
H        2.28090000      -3.43210000       0.28970000
H        0.56170000      -5.26970000       0.04440000
H       -1.85870000      -4.12220000      -0.27510000
