13
Properties=species:S:1:pos:R:3 gdb_132874=T pbc="F F F"
N        0.04490000       1.42380000       0.15540000
C       -0.03620000       0.03440000       0.04840000
C       -1.20160000      -0.67040000       0.01960000
N       -1.14120000      -2.04870000      -0.01510000
C        0.02070000      -2.80010000      -0.02090000
O        0.04390000      -4.01710000      -0.05170000
C        1.18940000      -1.89980000       0.00930000
F        2.35610000      -2.51400000      -0.00450000
N        1.17110000      -0.62140000       0.03900000
H        0.93900000       1.77060000      -0.16370000
H       -0.72260000       1.92820000      -0.26480000
H       -2.18600000      -0.22380000       0.02950000
H       -1.99480000      -2.58920000      -0.03840000
