18
Properties=species:S:1:pos:R:3 gdb_12662=T pbc="F F F"
C        0.05540000       1.58870000       0.04430000
C       -0.00940000       0.05250000      -0.04220000
C        0.73370000      -0.54090000      -1.25410000
O        0.61870000       0.31170000      -2.37730000
C        2.18140000      -0.75490000      -0.75830000
C        2.00670000      -1.23760000       0.68780000
C        0.71420000      -0.56240000       1.16620000
O        0.33490000      -0.50410000       2.30720000
H        1.08670000       1.95500000       0.04630000
H       -0.45500000       2.03720000      -0.80970000
H       -0.42390000       1.91860000       0.96940000
H       -1.06050000      -0.25030000      -0.01900000
H        0.29460000      -1.52690000      -1.48040000
H        1.09670000      -0.09090000      -3.10920000
H        2.74010000      -1.45350000      -1.38830000
H        2.70460000       0.20720000      -0.78510000
H        1.84580000      -2.32290000       0.73450000
H        2.83880000      -1.01250000       1.35870000
