16
Properties=species:S:1:pos:R:3 gdb_43043=T pbc="F F F"
O       -0.00430000       0.05650000       0.10560000
C       -0.04720000       1.25160000       0.02720000
C       -1.23250000       2.21230000      -0.00050000
C       -0.77930000       3.05860000       1.21790000
N        0.35430000       3.54730000       0.33800000
C       -0.60720000       3.41030000      -0.83490000
C        0.27550000       3.06860000      -2.00490000
C        1.34850000       2.44720000      -1.50920000
C        1.11640000       2.29390000      -0.01880000
H       -2.22480000       1.79300000      -0.14970000
H       -1.44450000       3.89270000       1.45090000
H       -0.48140000       2.54720000       2.13720000
H       -1.27600000       4.26710000      -0.93370000
H        0.05370000       3.29390000      -3.03900000
H        2.18500000       2.01890000      -2.04360000
H        1.97480000       2.08450000       0.61720000
