13
Properties=species:S:1:pos:R:3 gdb_3280=T pbc="F F F"
O        0.02130000       0.01650000      -0.40090000
C        0.01560000       1.16570000      -0.07270000
C       -1.09100000       2.15410000       0.36170000
C        0.00620000       3.23490000       0.51730000
O        0.57240000       3.25960000       1.84130000
C        1.67100000       2.40910000       1.44670000
C        1.10730000       2.24640000       0.01430000
H       -1.78660000       2.34810000      -0.46300000
H       -1.65830000       1.90680000       1.26190000
H       -0.17900000       4.23110000       0.11270000
H        2.62420000       2.94960000       1.47880000
H        1.74910000       1.50240000       2.05680000
H        1.78000000       2.38260000      -0.83100000
