17
Properties=species:S:1:pos:R:3 gdb_72011=T pbc="F F F"
C        0.00840000       1.56120000      -0.04900000
C        0.00580000       0.05670000      -0.07120000
C        0.45600000      -0.83780000      -1.24310000
C       -0.27110000      -1.93010000      -0.43640000
O        0.58100000      -2.07180000       0.72100000
C        0.40820000      -0.74730000       1.24640000
C       -1.10120000      -0.75560000       1.56880000
O       -1.78530000      -0.51230000       2.51860000
C       -1.31440000      -0.86550000       0.07040000
H        1.03370000       1.94780000      -0.06460000
H       -0.51820000       1.97250000      -0.91600000
H       -0.47960000       1.94550000       0.85350000
H       -0.07290000      -0.56980000      -2.16140000
H        1.52240000      -0.98300000      -1.43370000
H       -0.55400000      -2.90360000      -0.83070000
H        1.20090000      -0.46270000       1.93400000
H       -2.24900000      -0.70060000      -0.45810000
