19
Properties=species:S:1:pos:R:3 gdb_104799=T pbc="F F F"
O        0.25680000       1.27840000      -0.32530000
C        0.08570000      -0.05950000       0.10340000
C       -1.37470000      -0.51510000       0.05330000
C       -2.21700000       0.11200000       1.15550000
O       -2.22820000       1.52890000       0.96930000
C       -2.06990000      -0.42390000      -1.36020000
C       -2.26070000      -1.94380000      -1.31660000
O       -0.95980000      -2.53500000      -1.18550000
C       -1.59980000      -2.04800000      -0.00610000
H       -0.40400000       1.80230000       0.14570000
H        0.67280000      -0.68580000      -0.57370000
H        0.47980000      -0.21220000       1.12460000
H       -3.24240000      -0.28890000       1.12560000
H       -1.78570000      -0.14600000       2.13560000
H       -2.66830000       1.93650000       1.72100000
H       -3.00300000       0.14250000      -1.32820000
H       -1.44430000      -0.05150000      -2.17270000
H       -3.03300000      -2.55760000      -1.76560000
H       -1.73280000      -2.74730000       0.81310000
