16
Properties=species:S:1:pos:R:3 gdb_16142=T pbc="F F F"
O       -0.17010000       0.04300000       0.14190000
C       -0.01640000       1.22590000      -0.05040000
C        1.28880000       1.90740000      -0.05230000
C        1.36740000       3.39110000       0.28110000
C        1.62850000       2.95700000      -1.11880000
C        3.07370000       2.66080000      -1.48780000
O        3.60950000       1.92900000      -0.39350000
C        2.57010000       1.11610000       0.14940000
H       -0.88580000       1.89660000      -0.24560000
H        0.42950000       3.89710000       0.48500000
H        2.20480000       3.70210000       0.89710000
H        0.92010000       3.19710000      -1.90330000
H        3.10670000       2.07690000      -2.42160000
H        3.69080000       3.55600000      -1.61640000
H        2.81810000       0.92730000       1.19760000
H        2.48880000       0.15040000      -0.36950000
