17
Properties=species:S:1:pos:R:3 gdb_74513=T pbc="F F F"
C        0.10100000       1.53060000       0.11520000
C       -0.00740000       0.04420000       0.00750000
C       -0.14940000      -0.68320000      -1.10720000
C       -0.12240000      -2.13790000      -0.79940000
O        1.11440000      -2.59530000      -0.17440000
C        0.03550000      -2.26170000       0.67760000
C        0.06750000      -0.84600000       1.24010000
C       -0.80600000      -3.17190000      -1.61450000
O       -1.54770000      -2.92250000      -2.53180000
H        1.07590000       1.82630000       0.52280000
H       -0.01980000       2.01290000      -0.85800000
H       -0.65790000       1.93410000       0.79720000
H       -0.24810000      -0.30210000      -2.11490000
H       -0.38070000      -3.08470000       1.25400000
H        0.97990000      -0.67110000       1.82350000
H       -0.78010000      -0.67200000       1.91560000
H       -0.56610000      -4.21230000      -1.30440000
