22
Properties=species:S:1:pos:R:3 gdb_62789=T pbc="F F F"
C       -0.09680000       1.57070000       0.03970000
C        0.02920000       0.06220000      -0.07240000
C       -1.10180000      -0.68060000       0.61990000
C        0.61100000      -0.65440000      -1.23360000
N        1.31020000      -0.65950000       0.13290000
C        2.41260000       0.16550000      -0.47280000
C        1.80160000       0.02690000      -1.90110000
C        2.58900000      -0.92610000      -2.79520000
O        1.45480000       1.20680000      -2.60950000
H        0.57810000       2.11200000      -0.61970000
H       -1.11660000       1.86620000      -0.22800000
H        0.07420000       1.88590000       1.07620000
H       -2.06160000      -0.46270000       0.13910000
H       -0.93200000      -1.75970000       0.59590000
H       -1.17020000      -0.37420000       1.66920000
H        0.14460000      -1.55180000      -1.63380000
H        2.49200000       1.18130000      -0.07820000
H        3.37090000      -0.34440000      -0.34690000
H        2.80720000      -1.86490000      -2.27870000
H        2.01970000      -1.15050000      -3.70290000
H        3.54600000      -0.47630000      -3.08880000
H        2.23210000       1.50450000      -3.09480000
