21
Properties=species:S:1:pos:R:3 gdb_57593=T pbc="F F F"
C        0.25210000       1.50160000       0.27300000
C        0.03970000       0.00290000       0.07250000
O        0.58370000      -0.63680000       1.22430000
C       -1.45570000      -0.33450000       0.01510000
O       -2.32230000       0.38220000      -0.40910000
C        0.68460000      -0.50840000      -1.23790000
C        0.21760000       0.18140000      -2.50950000
C        2.12810000      -0.94170000      -1.17280000
C        1.04340000      -1.97730000      -1.34330000
H        1.30960000       1.75270000       0.15990000
H       -0.33820000       2.07010000      -0.44670000
H       -0.06860000       1.78200000       1.27920000
H        0.35860000      -1.57370000       1.19630000
H       -1.69050000      -1.35740000       0.40130000
H        0.50950000       1.23620000      -2.52280000
H        0.66780000      -0.29520000      -3.38510000
H       -0.86960000       0.13680000      -2.62350000
H        2.76040000      -0.71010000      -2.02310000
H        2.62040000      -0.89920000      -0.20880000
H        0.85770000      -2.64710000      -0.50950000
H        0.92040000      -2.45350000      -2.31000000
