17
Properties=species:S:1:pos:R:3 gdb_86025=T pbc="F F F"
O       -0.67330000       1.37520000      -0.82460000
C       -0.00340000       0.33740000      -0.11670000
C       -0.95800000      -0.75140000       0.42020000
C       -1.02390000      -1.78840000      -0.72470000
O       -2.06450000      -1.32710000      -1.61600000
C        0.34220000      -1.61850000      -1.38480000
C        0.89820000      -0.45780000      -1.04490000
C       -1.29510000      -3.15830000      -0.29110000
C       -1.51280000      -4.29570000       0.03240000
H       -1.21690000       0.93580000      -1.49200000
H        0.53990000       0.84170000       0.68710000
H       -0.53450000      -1.22380000       1.30950000
H       -1.94750000      -0.35890000       0.66000000
H       -2.08910000      -1.92050000      -2.37560000
H        0.73070000      -2.34950000      -2.08470000
H        1.82450000      -0.05710000      -1.44020000
H       -1.70860000      -5.29630000       0.33020000
