20
Properties=species:S:1:pos:R:3 gdb_124542=T pbc="F F F"
C       -0.10260000       1.67520000       0.34740000
C       -0.10220000       0.19800000      -0.06810000
C        0.80750000      -0.63430000       0.85960000
C       -1.49260000      -0.37850000      -0.11950000
N       -2.47830000       0.06820000       0.65980000
N       -3.53890000      -0.68970000       0.34870000
C       -3.26860000      -1.62180000      -0.60820000
C       -1.93970000      -1.45130000      -0.93960000
N       -1.18720000      -2.10780000      -1.93310000
H        0.91810000       2.07150000       0.35320000
H       -0.70370000       2.27790000      -0.33900000
H       -0.52600000       1.79510000       1.34840000
H        0.30830000       0.12820000      -1.08530000
H        0.44550000      -0.58560000       1.89180000
H        0.82900000      -1.69040000       0.56830000
H        1.83640000      -0.25900000       0.83880000
H       -4.41770000      -0.51180000       0.80180000
H       -4.01940000      -2.30580000      -0.97080000
H       -1.62650000      -2.96320000      -2.24830000
H       -0.24820000      -2.32540000      -1.62300000
