20
Properties=species:S:1:pos:R:3 gdb_102964=T pbc="F F F"
C        0.26290000       1.33020000       0.40900000
C       -0.21140000      -0.04080000      -0.08520000
C        0.56250000      -0.59610000      -1.30720000
C        0.30930000      -2.10060000      -1.49940000
N        1.08150000      -2.68480000      -2.57890000
C        2.14890000      -3.49580000      -2.36450000
O        2.56080000      -3.84380000      -1.27630000
C        0.22880000       0.18980000      -2.55880000
O       -0.13870000      -0.29860000      -3.60190000
H        1.32670000       1.30730000       0.66820000
H        0.11930000       2.11680000      -0.33800000
H       -0.29150000       1.62770000       1.30400000
H       -0.10390000      -0.76860000       0.72730000
H       -1.28300000      -0.00630000      -0.31980000
H        1.63720000      -0.44080000      -1.12280000
H        0.58950000      -2.63580000      -0.59000000
H       -0.75790000      -2.26860000      -1.68420000
H        0.84290000      -2.40510000      -3.51720000
H        2.61350000      -3.82040000      -3.31670000
H        0.33520000       1.29280000      -2.47070000
