22
Properties=species:S:1:pos:R:3 gdb_83266=T pbc="F F F"
C        0.40600000       2.21890000       0.58860000
C        0.07250000       0.73310000       0.58300000
O        0.16320000       0.23540000      -0.75320000
C        0.40870000      -1.16660000      -0.70560000
C        1.13550000      -1.42350000       0.60200000
N        2.26860000      -0.58020000       0.94430000
C        3.04780000       0.13540000      -0.06110000
C        0.94960000      -0.19090000       1.43310000
C        0.75370000      -0.17510000       2.92990000
H        1.43630000       2.40260000       0.27700000
H       -0.26090000       2.75430000      -0.09300000
H        0.26770000       2.63190000       1.59270000
H       -0.96300000       0.60900000       0.95110000
H       -0.53180000      -1.74160000      -0.72300000
H        0.98300000      -1.42950000      -1.60130000
H        1.12970000      -2.43230000       1.00970000
H        2.47380000       0.52750000      -0.90780000
H        3.56490000       0.96780000       0.42720000
H        3.81550000      -0.54670000      -0.44220000
H        1.04940000       0.79060000       3.35610000
H       -0.29520000      -0.34930000       3.19470000
H        1.36820000      -0.94700000       3.39810000
