17
Properties=species:S:1:pos:R:3 gdb_81158=T pbc="F F F"
O       -0.02400000       1.39740000       0.12850000
C        0.02280000       0.00170000       0.02940000
C       -1.38220000      -0.62690000      -0.20060000
C       -1.24200000      -0.19290000      -1.69250000
C        0.23960000      -0.58150000      -1.41530000
O        0.17970000      -1.99830000      -1.17060000
C       -0.98250000      -2.10020000      -0.30540000
C        1.35150000      -0.18480000      -2.23440000
C        2.27850000       0.22650000      -2.88070000
H        0.84500000       1.73860000      -0.11290000
H        0.65790000      -0.45630000       0.79960000
H       -2.23900000      -0.36390000       0.41680000
H       -1.75980000      -0.77540000      -2.45670000
H       -1.37600000       0.87700000      -1.83100000
H       -0.69170000      -2.54820000       0.65140000
H       -1.74620000      -2.72710000      -0.77890000
H        3.09500000       0.56880000      -3.46760000
