16
Properties=species:S:1:pos:R:3 gdb_75735=T pbc="F F F"
C       -0.03710000       1.42870000       0.07140000
N       -0.01470000      -0.01600000       0.03180000
C       -0.02070000      -0.77750000      -1.15570000
O       -0.07650000      -0.30240000      -2.26770000
C        0.04250000      -2.19070000      -0.74220000
C        0.08510000      -2.24220000       0.60540000
N        0.18560000      -3.30050000       1.46030000
C        0.07500000      -0.83120000       1.13840000
N        0.13830000      -0.38900000       2.33250000
H        0.86180000       1.81940000       0.55780000
H       -0.08190000       1.77630000      -0.96170000
H       -0.91010000       1.79020000       0.62300000
H        0.03560000      -3.00380000      -1.45190000
H       -0.00290000      -4.21660000       1.08490000
H       -0.15700000      -3.16810000       2.39950000
H        0.23410000      -1.14450000       3.00950000
