25
Properties=species:S:1:pos:R:3 gdb_87705=T pbc="F F F"
C        0.03350000       1.64700000       0.61600000
C       -0.12120000       0.15040000       0.46460000
C        0.87190000      -0.64770000      -0.35130000
C        0.82000000      -0.81480000       1.13960000
C        1.89020000      -0.46220000       2.18090000
C        1.23320000      -1.49090000       3.15380000
C        0.41580000      -0.84390000       4.26770000
C        0.41850000      -2.06780000       1.94080000
C       -1.05070000      -2.43160000       2.10350000
H        1.08850000       1.93510000       0.66540000
H       -0.41260000       2.17660000      -0.23320000
H       -0.45230000       2.01370000       1.52810000
H       -1.15400000      -0.18440000       0.39250000
H        0.50160000      -1.45650000      -0.97500000
H        1.72130000      -0.11660000      -0.77300000
H        2.89980000      -0.74890000       1.86970000
H        1.91950000       0.57350000       2.53400000
H        1.93310000      -2.20950000       3.59120000
H       -0.27040000      -0.08470000       3.87620000
H       -0.18010000      -1.58120000       4.81620000
H        1.07650000      -0.34780000       4.98720000
H        0.95410000      -2.93740000       1.53900000
H       -1.63780000      -1.60170000       2.50820000
H       -1.49390000      -2.71130000       1.14060000
H       -1.17170000      -3.28750000       2.77680000
