9
Properties=species:S:1:pos:R:3 gdb_3909=T pbc="F F F"
O        0.01290000      -0.07210000       0.00280000
C        0.03030000       1.12650000       0.00900000
O       -1.16700000       1.82250000       0.02800000
N       -1.24440000       3.26250000       0.03630000
N       -0.20010000       3.91700000       0.02590000
C        1.05910000       3.31370000       0.00630000
C        1.21120000       1.98160000      -0.00240000
H        1.88460000       4.01450000      -0.00120000
H        2.18030000       1.49860000      -0.01770000
