19
Properties=species:S:1:pos:R:3 gdb_71930=T pbc="F F F"
C        0.03170000       1.56350000       0.02060000
C       -0.00660000       0.04280000       0.02110000
C        0.25790000      -0.65530000      -1.37860000
C       -1.03120000      -1.49260000      -1.19800000
O       -0.84680000      -2.69610000      -0.42200000
C       -1.11260000      -1.98020000       0.83780000
C        0.14620000      -1.70440000       1.62090000
C        0.75440000      -0.61270000       1.15310000
C       -1.39790000      -0.67730000       0.06060000
H        1.05190000       1.93100000      -0.14080000
H       -0.59790000       1.97620000      -0.77500000
H       -0.32220000       1.96890000       0.97510000
H        0.16480000       0.05490000      -2.20690000
H        1.18700000      -1.21860000      -1.48430000
H       -1.67430000      -1.65890000      -2.06530000
H       -1.91780000      -2.47620000       1.38670000
H        0.52770000      -2.36360000       2.39170000
H        1.71740000      -0.23820000       1.48770000
H       -2.31060000      -0.10630000       0.22270000
