21
Properties=species:S:1:pos:R:3 gdb_106208=T pbc="F F F"
C       -0.21570000       1.51900000      -0.00680000
C        0.14000000       0.02820000       0.06850000
C        0.79190000      -0.49480000      -1.19800000
C        2.17470000       0.03620000      -1.57870000
C        2.48230000      -0.59970000      -2.70890000
C        1.27510000      -1.48420000      -2.96140000
C        0.80390000      -2.03740000      -1.56680000
C       -0.66560000      -1.95430000      -2.04250000
C       -0.00270000      -0.65800000      -2.56320000
H        0.66860000       2.13250000      -0.20880000
H       -0.93810000       1.71140000      -0.80700000
H       -0.65590000       1.86760000       0.93250000
H        0.82470000      -0.14280000       0.90990000
H       -0.76470000      -0.54650000       0.29640000
H        2.74800000       0.76210000      -1.01800000
H        3.37060000      -0.53280000      -3.32110000
H        1.23750000      -2.13640000      -3.83480000
H        1.28510000      -2.83420000      -0.99140000
H       -0.96920000      -2.68110000      -2.80140000
H       -1.43960000      -1.85440000      -1.27860000
H       -0.45800000       0.14580000      -3.14940000
