21
Properties=species:S:1:pos:R:3 gdb_116152=T pbc="F F F"
C       -0.02970000       1.47410000       0.17610000
C        0.02620000      -0.03990000       0.06220000
C        0.73050000      -0.52120000      -1.20730000
O        0.84500000      -1.93380000      -1.22500000
C        1.54430000      -2.41070000      -0.08660000
C        0.85430000      -1.95950000       1.19720000
C        1.61300000      -2.31100000       2.47130000
O        0.95020000      -1.81220000       3.61420000
O        0.73150000      -0.53580000       1.20030000
H        0.97840000       1.89980000       0.16220000
H       -0.60120000       1.90220000      -0.65290000
H       -0.51070000       1.76550000       1.11360000
H       -0.99360000      -0.45980000       0.06690000
H        0.16000000      -0.24280000      -2.09840000
H        1.72790000      -0.05290000      -1.26570000
H        1.55700000      -3.50210000      -0.16220000
H        2.58420000      -2.04320000      -0.09470000
H       -0.15310000      -2.40520000       1.23840000
H        1.67650000      -3.39890000       2.57990000
H        2.64000000      -1.91710000       2.39680000
H        0.73030000      -0.89630000       3.40430000
