22
Properties=species:S:1:pos:R:3 gdb_99283=T pbc="F F F"
C        0.23900000       1.05450000       0.35590000
O       -0.30480000       0.00890000      -0.45080000
C        0.61000000      -0.65130000      -1.21030000
O        1.79590000      -0.40140000      -1.22460000
N       -0.00720000      -1.61220000      -1.94770000
C        0.73990000      -2.51680000      -2.80290000
C        1.25330000      -3.78690000      -2.09790000
C        0.10360000      -4.63780000      -1.54650000
C        2.13670000      -4.59340000      -3.05660000
H        0.98640000       0.66350000       1.05140000
H        0.70810000       1.82340000      -0.26380000
H       -0.60520000       1.47450000       0.90420000
H       -0.99250000      -1.74780000      -1.79920000
H        0.09820000      -2.79420000      -3.64850000
H        1.58880000      -1.95400000      -3.20020000
H        1.87280000      -3.44990000      -1.25670000
H        0.48360000      -5.51610000      -1.01510000
H       -0.51550000      -4.07040000      -0.84430000
H       -0.54410000      -4.99670000      -2.35650000
H        2.97970000      -3.99700000      -3.42060000
H        2.54270000      -5.48200000      -2.56320000
H        1.56580000      -4.93330000      -3.92960000
