19
Properties=species:S:1:pos:R:3 gdb_106874=T pbc="F F F"
C       -0.29540000       1.33990000      -0.05150000
C        0.10330000      -0.14360000      -0.02050000
C        0.78920000      -0.56370000      -1.28110000
C        0.15070000      -0.99560000      -2.54540000
C        1.10960000      -1.97280000      -1.87590000
C        2.52590000      -1.42690000      -1.98800000
O        2.12520000      -0.11690000      -1.50560000
C        0.67980000      -3.26080000      -1.33330000
O       -0.47680000      -3.59010000      -1.17950000
H        0.58310000       1.97560000      -0.19530000
H       -0.99660000       1.54160000      -0.86700000
H       -0.77390000       1.62900000       0.88840000
H        0.77170000      -0.33270000       0.82700000
H       -0.78040000      -0.77690000       0.11330000
H       -0.88440000      -1.31160000      -2.46920000
H        0.44710000      -0.53920000      -3.48580000
H        3.22930000      -1.89310000      -1.28780000
H        2.97280000      -1.37930000      -2.98760000
H        1.51280000      -3.93410000      -1.02700000
