15
Properties=species:S:1:pos:R:3 gdb_17908=T pbc="F F F"
O        0.00580000       0.04240000      -0.06370000
C       -0.01520000       1.23700000       0.00790000
C       -1.15230000       2.27170000       0.05020000
C       -0.69350000       3.10650000       1.24590000
O        0.76040000       3.05490000       1.17260000
C        1.09290000       2.30910000      -0.00360000
C        0.66280000       3.11670000      -1.23620000
N       -0.84550000       3.05880000      -1.17010000
H       -2.17530000       1.90470000       0.07850000
H       -1.02760000       4.14640000       1.16800000
H       -1.01840000       2.68230000       2.20260000
H        2.12700000       1.97790000       0.04660000
H        1.00890000       4.15260000      -1.16950000
H        1.04550000       2.67620000      -2.16320000
H       -1.20310000       2.56690000      -1.98230000
