16
Properties=species:S:1:pos:R:3 gdb_11368=T pbc="F F F"
O       -0.00260000       1.41930000       0.00690000
C       -0.01000000       0.00500000       0.00220000
C       -1.41780000      -0.49460000       0.01220000
C       -2.52690000       0.25010000       0.02330000
C       -3.78380000      -0.57440000       0.03120000
C       -3.26100000      -2.02000000       0.02310000
O       -3.93110000      -3.01790000       0.02630000
C       -1.72240000      -1.97090000       0.01060000
H        0.91170000       1.71530000      -0.00040000
H        0.50910000      -0.39940000      -0.88580000
H        0.52390000      -0.40540000       0.87850000
H       -2.52380000       1.33210000       0.02630000
H       -4.41760000      -0.41250000       0.91320000
H       -4.43170000      -0.40780000      -0.83960000
H       -1.33940000      -2.50210000      -0.87130000
H       -1.32490000      -2.50700000       0.88300000
