21
Properties=species:S:1:pos:R:3 gdb_73021=T pbc="F F F"
C       -0.14770000       1.53250000      -0.10780000
C       -0.01000000       0.03880000      -0.01770000
C       -0.77680000      -0.95200000      -0.91710000
C       -1.01920000      -1.87670000       0.31640000
C       -0.19780000      -0.91160000       1.18350000
C        1.17580000      -0.63160000       0.62580000
C        2.13250000      -1.59100000      -0.01740000
C        2.55190000      -2.84420000       0.62890000
O        1.67250000      -2.85690000      -0.49680000
H        0.34150000       1.92570000      -1.00810000
H       -1.20120000       1.83350000      -0.15020000
H        0.30710000       2.02830000       0.75660000
H       -1.70360000      -0.52260000      -1.30630000
H       -0.21530000      -1.38270000      -1.74990000
H       -2.07080000      -1.87840000       0.61390000
H       -0.66410000      -2.90390000       0.24210000
H       -0.42850000      -0.65800000       2.21320000
H        1.72370000       0.07100000       1.25580000
H        2.85520000      -1.11850000      -0.68730000
H        3.54780000      -3.24570000       0.44710000
H        2.09600000      -3.12860000       1.57600000
