16
Properties=species:S:1:pos:R:3 gdb_18060=T pbc="F F F"
C        0.02450000      -1.12950000       0.25820000
C       -0.01210000       0.05570000       0.06220000
C       -0.02680000       1.49380000      -0.18430000
C        1.36730000       2.10350000      -0.11890000
C        1.65490000       3.59490000      -0.12980000
C        0.65100000       4.33290000       0.74850000
O        0.87720000       3.41490000       1.85270000
C        1.91090000       2.75950000       1.11110000
H        0.04340000      -2.17570000       0.43820000
H       -0.47750000       1.69210000      -1.16540000
H       -0.66170000       1.98230000       0.56290000
H        2.12480000       1.54640000      -0.66480000
H        2.34080000       4.05550000      -0.82790000
H        0.97860000       5.34170000       1.02220000
H       -0.39840000       4.36040000       0.43200000
H        2.80970000       2.47420000       1.64560000
