14
Properties=species:S:1:pos:R:3 gdb_27394=T pbc="F F F"
N        0.05710000       1.35620000       0.12030000
C       -0.01570000      -0.01430000       0.02020000
N       -1.14110000      -0.62670000      -0.02450000
C       -1.14640000      -2.04240000      -0.00300000
O       -2.18730000      -2.65130000       0.02550000
N        0.08980000      -2.73180000      -0.04230000
C        1.17570000      -2.05190000       0.00290000
N        2.40640000      -2.66180000       0.08630000
N        1.20870000      -0.66550000       0.01610000
H        0.80770000       1.81230000      -0.37810000
H       -0.84480000       1.79220000      -0.01240000
H        2.34310000      -3.65990000      -0.05850000
H        3.16840000      -2.22500000      -0.41230000
H        2.02940000      -0.18850000       0.35730000
