16
Properties=species:S:1:pos:R:3 gdb_24339=T pbc="F F F"
C       -0.02950000       1.51040000       0.02100000
N        1.28710000       2.16220000      -0.10120000
C        2.22740000       1.43660000      -0.85650000
C        3.38130000       1.82900000      -1.45560000
O        3.98510000       0.75320000      -2.05220000
C        3.19290000      -0.32780000      -1.83520000
C        2.09980000       0.01960000      -1.10100000
C        0.98080000      -0.70420000      -0.53450000
C       -0.01050000      -0.00530000       0.03400000
H       -0.50890000       1.89320000       0.92730000
H       -0.66520000       1.84520000      -0.81510000
H        1.65420000       2.42630000       0.80370000
H        3.90340000       2.76730000      -1.53320000
H        3.53670000      -1.25570000      -2.26270000
H        0.97050000      -1.78940000      -0.55550000
H       -0.86470000      -0.50770000       0.47810000
