19
Properties=species:S:1:pos:R:3 gdb_38100=T pbc="F F F"
C       -0.11080000       1.43920000      -0.08280000
C        1.26280000       0.78610000       0.08160000
C        2.06180000       0.91160000       1.32720000
C        1.85290000       0.30670000       2.50140000
C        0.69450000      -0.61180000       2.77400000
C        0.50260000      -1.78420000       1.77280000
C       -0.52660000      -0.83580000       1.12190000
O       -0.56640000      -0.02710000       2.32010000
C        0.01340000      -0.05770000      -0.06020000
H       -0.53050000       1.89310000       0.80660000
H       -0.32850000       1.94110000      -1.01910000
H        1.87580000       0.83990000      -0.81480000
H        2.91850000       1.57820000       1.24320000
H        2.53340000       0.50420000       3.32540000
H        0.63860000      -0.87220000       3.83490000
H        1.36550000      -2.07670000       1.17430000
H        0.04660000      -2.65990000       2.23850000
H       -1.51710000      -1.24530000       0.89330000
H       -0.09120000      -0.58090000      -1.00810000
