11
Properties=species:S:1:pos:R:3 gdb_130852=T pbc="F F F"
O       -0.03420000      -0.03920000      -0.00150000
C        0.00280000       1.16620000       0.00890000
C        1.23580000       1.95950000       0.00210000
C        1.39020000       3.33010000       0.01270000
O        2.68720000       3.61710000       0.00020000
N        3.37610000       2.32430000      -0.01870000
N        2.51020000       1.43190000      -0.01700000
C        0.44580000       4.36980000       0.03260000
C       -0.37300000       5.25080000       0.04960000
H       -0.91770000       1.78650000       0.02470000
H       -1.09480000       6.03180000       0.06500000
