18
Properties=species:S:1:pos:R:3 gdb_36543=T pbc="F F F"
C       -0.09480000      -0.94120000      -0.35310000
C        0.01380000       0.21660000      -0.05020000
C        0.15040000       1.62360000       0.32570000
N        1.53100000       2.10700000       0.19380000
C        1.89340000       2.53970000      -0.93480000
C        3.27260000       3.05850000      -1.27860000
C        3.01900000       3.88100000      -2.55000000
C        1.81490000       3.14820000      -3.15650000
O        1.08790000       2.61420000      -2.03700000
H       -0.19320000      -1.96350000      -0.62150000
H       -0.55060000       2.22120000      -0.27340000
H       -0.13890000       1.73890000       1.37650000
H        3.70320000       3.61680000      -0.44760000
H        3.93030000       2.20520000      -1.48270000
H        2.74480000       4.90890000      -2.29360000
H        3.87200000       3.91610000      -3.23020000
H        1.13650000       3.79320000      -3.71920000
H        2.12490000       2.31670000      -3.80180000
