21
Properties=species:S:1:pos:R:3 gdb_62774=T pbc="F F F"
C       -0.08090000       1.52240000      -0.17180000
C        0.03300000       0.01690000      -0.01690000
C       -1.19670000      -0.71910000      -0.53270000
C        1.31680000      -0.74600000      -0.23130000
C        2.54640000       0.01830000       0.27080000
C        1.93010000       0.02310000       1.72160000
C        1.81410000       1.26520000       2.46700000
C        1.73930000       2.28550000       3.10060000
C        0.67210000      -0.67620000       1.16320000
H        0.77860000       2.06430000       0.22300000
H       -0.19370000       1.78500000      -1.23060000
H       -0.96570000       1.89470000       0.35690000
H       -1.36520000      -0.49870000      -1.59300000
H       -1.09310000      -1.80390000      -0.42910000
H       -2.09440000      -0.41360000       0.01670000
H        1.36030000      -1.59160000      -0.90830000
H        3.46950000      -0.56270000       0.22900000
H        2.73060000       0.99740000      -0.17820000
H        2.48630000      -0.69500000       2.33280000
H        1.66240000       3.18780000       3.65490000
H        0.13920000      -1.44690000       1.70930000
