22
Properties=species:S:1:pos:R:3 gdb_118710=T pbc="F F F"
C        0.15480000       1.46350000      -0.34980000
O        0.10410000       0.12460000      -0.78070000
C        1.09470000      -0.68670000      -0.17710000
C        0.85200000      -2.12740000      -0.64030000
C       -0.41370000      -2.61200000       0.07480000
C        1.11070000      -2.53520000      -2.12510000
C        2.60680000      -2.34250000      -1.81520000
N        2.10690000      -3.05890000      -0.53910000
C        1.36380000      -3.95110000      -1.55560000
H       -0.00240000       1.54940000       0.73710000
H        1.12030000       1.93510000      -0.59290000
H       -0.64180000       2.00440000      -0.86650000
H        2.09160000      -0.30190000      -0.42100000
H        1.00450000      -0.65200000       0.92200000
H       -1.12600000      -1.78480000       0.11950000
H       -0.91630000      -3.44880000      -0.41030000
H       -0.16840000      -2.90970000       1.10050000
H        0.54820000      -2.23950000      -3.01730000
H        3.31540000      -2.95150000      -2.38170000
H        3.00990000      -1.34330000      -1.66530000
H        0.54220000      -4.52800000      -1.13650000
H        2.03920000      -4.60140000      -2.11700000
