18
Properties=species:S:1:pos:R:3 gdb_78932=T pbc="F F F"
C       -0.03760000       1.43380000       0.06390000
C        0.08430000      -0.05530000       0.05430000
C        0.24440000      -1.02630000      -1.05700000
C        0.62240000      -2.10450000      -0.01020000
C       -0.87030000      -2.12060000       0.44090000
C       -0.48130000      -1.62280000       1.85060000
O       -0.01820000      -2.65070000       2.70250000
C        0.71380000      -0.98940000       1.10910000
N       -1.10040000      -0.88350000      -0.40550000
H        0.94810000       1.91130000       0.05240000
H       -0.59650000       1.77250000      -0.81330000
H       -0.57180000       1.77900000       0.95650000
H        0.39810000      -0.90100000      -2.12240000
H        1.29380000      -2.95200000      -0.09870000
H       -1.59360000      -2.91760000       0.26440000
H       -1.18470000      -0.94720000       2.35820000
H       -0.77250000      -3.19450000       2.95140000
H        1.63020000      -0.69770000       1.61810000
