20
Properties=species:S:1:pos:R:3 gdb_41471=T pbc="F F F"
C       -0.12780000       1.32900000      -0.11480000
C        1.39610000       1.61600000      -0.02110000
C        1.57700000       0.10620000       0.20170000
C        2.60440000      -0.75420000      -0.50940000
C        2.52760000      -2.06360000       0.29150000
O        2.27420000      -1.67160000       1.64390000
C        1.46560000      -0.51390000       1.62380000
C       -0.04790000      -0.71710000       1.32510000
N        0.09740000      -0.15320000      -0.05460000
H       -0.72180000       1.71520000       0.72170000
H       -0.60740000       1.63900000      -1.04750000
H        1.83670000       1.97260000      -0.95540000
H        1.72970000       2.26830000       0.79030000
H        2.37720000      -0.88790000      -1.57000000
H        3.59690000      -0.29840000      -0.41310000
H        1.71120000      -2.69450000      -0.08990000
H        3.44960000      -2.64990000       0.28520000
H        1.71780000       0.09040000       2.49900000
H       -0.36050000      -1.76580000       1.31960000
H       -0.73060000      -0.15010000       1.96810000
