23
Properties=species:S:1:pos:R:3 gdb_97934=T pbc="F F F"
C        0.02600000       1.51760000      -0.11900000
C        0.29960000       0.00250000      -0.11130000
C        0.76690000      -0.48910000       1.18140000
C        1.15470000      -0.86620000       2.25790000
C        1.62090000      -1.35740000       3.55350000
C        1.80720000      -2.86980000       3.57510000
C        3.09350000      -3.50020000       3.10380000
C        2.71410000      -3.56640000       4.56540000
C        3.51790000      -2.83340000       5.61830000
H        0.93260000       2.07700000       0.12750000
H       -0.32060000       1.83940000      -1.10580000
H       -0.73960000       1.77760000       0.61720000
H       -0.61430000      -0.53400000      -0.39850000
H        1.04180000      -0.23750000      -0.88390000
H        2.56270000      -0.85830000       3.81110000
H        0.90460000      -1.06500000       4.33400000
H        0.89820000      -3.40680000       3.31860000
H        3.04900000      -4.40060000       2.50100000
H        3.90270000      -2.82790000       2.83280000
H        2.34360000      -4.53140000       4.90340000
H        3.92880000      -1.89230000       5.24170000
H        2.91070000      -2.60210000       6.50100000
H        4.36430000      -3.44460000       5.95050000
