20
Properties=species:S:1:pos:R:3 gdb_109408=T pbc="F F F"
C        0.08960000       1.53950000       0.16080000
C       -0.14980000       0.04220000      -0.06600000
C        0.66610000      -0.50560000      -1.23390000
C        2.22180000      -0.57600000      -1.13630000
O        3.08140000       0.25350000      -1.05170000
C        2.21010000      -2.06500000      -1.38710000
N        1.30870000      -2.62140000      -0.30870000
C        0.70740000      -2.02920000      -1.50960000
C       -0.19450000      -2.79040000      -2.43040000
H        1.14920000       1.74450000       0.33740000
H       -0.21870000       2.12740000      -0.71110000
H       -0.47850000       1.90010000       1.02380000
H        0.10600000      -0.52440000       0.83450000
H       -1.21570000      -0.13840000      -0.25830000
H        0.43380000       0.03790000      -2.16060000
H        2.95080000      -2.69760000      -1.86090000
H        1.32730000      -3.63450000      -0.43780000
H       -1.20030000      -2.88540000      -2.00540000
H       -0.28740000      -2.28370000      -3.39650000
H        0.18820000      -3.80060000      -2.61220000
