21
Properties=species:S:1:pos:R:3 gdb_87005=T pbc="F F F"
C        0.23930000       1.50270000       0.06630000
N        0.01490000       0.07710000       0.12790000
C       -1.29380000      -0.41590000       0.59180000
C       -0.56840000      -1.59790000       1.27140000
C        0.71270000      -0.70930000       1.15950000
N       -1.09070000      -2.04550000       2.53940000
C       -0.34070000      -3.11670000       3.17650000
C       -1.14760000      -3.74020000       4.30370000
O       -0.67210000      -4.20910000       5.30390000
H        1.27800000       1.70370000      -0.21680000
H       -0.40820000       1.94910000      -0.69600000
H        0.04110000       2.01650000       1.02740000
H       -1.76460000       0.24180000       1.34580000
H       -2.02590000      -0.62790000      -0.19420000
H       -0.50010000      -2.46040000       0.60190000
H        1.65800000      -1.16200000       0.84110000
H        0.88150000      -0.14820000       2.09760000
H       -1.18100000      -1.25720000       3.17320000
H       -0.18760000      -3.91240000       2.43140000
H        0.65520000      -2.84600000       3.56170000
H       -2.24490000      -3.73340000       4.11420000
