14
Properties=species:S:1:pos:R:3 gdb_27039=T pbc="F F F"
C        0.07440000       1.54510000       0.03980000
C       -0.02080000       0.06020000       0.02790000
C       -1.08470000      -0.78160000      -0.06130000
O       -0.64100000      -2.09350000      -0.02670000
C        0.72510000      -2.09520000       0.08730000
O        1.42310000      -3.06450000       0.14380000
N        1.08960000      -0.75120000       0.11990000
C       -2.49970000      -0.49990000      -0.18180000
O       -3.37510000      -1.33260000      -0.25880000
H        0.68730000       1.90310000      -0.79520000
H       -0.91180000       2.00220000      -0.04140000
H        0.54000000       1.89780000       0.96700000
H        2.04970000      -0.46040000       0.19950000
H       -2.72500000       0.58880000      -0.19860000
