19
Properties=species:S:1:pos:R:3 gdb_112598=T pbc="F F F"
O        0.02060000       1.38360000      -0.27110000
C        0.06160000      -0.00480000       0.02520000
C       -1.36200000      -0.51780000       0.04120000
C       -2.13350000      -0.57740000      -1.30360000
C       -2.71560000      -1.95730000      -0.88470000
O       -2.67210000      -2.90140000      -1.93890000
C       -1.58130000      -2.04560000       0.19640000
C       -4.04820000      -1.88210000      -0.29370000
C       -5.14640000      -1.86240000       0.19660000
H        0.92370000       1.71070000      -0.31380000
H        0.64130000      -0.55820000      -0.73260000
H        0.53630000      -0.19290000       1.00280000
H       -1.93430000       0.03880000       0.78890000
H       -2.84210000       0.21700000      -1.53690000
H       -1.45770000      -0.72680000      -2.15060000
H       -3.19030000      -3.66930000      -1.67420000
H       -0.74890000      -2.62060000      -0.22070000
H       -1.84610000      -2.43700000       1.18010000
H       -6.11880000      -1.83080000       0.62270000
