22
Properties=species:S:1:pos:R:3 gdb_110352=T pbc="F F F"
C        0.44700000       1.03990000       0.75710000
C        0.32220000      -0.24010000      -0.07790000
C       -1.09670000      -0.77640000      -0.10880000
C       -1.54430000      -2.16200000      -0.35240000
C       -0.70760000      -3.21750000       0.35390000
O        0.63130000      -3.30110000      -0.09600000
C       -1.04860000      -2.47990000       1.68810000
C        0.02340000      -2.04450000       2.67280000
N       -1.87260000      -1.43820000       0.96590000
H        1.46170000       1.44640000       0.70240000
H       -0.24190000       1.81350000       0.40030000
H        0.21370000       0.85430000       1.80990000
H        0.59090000      -0.01800000      -1.11950000
H        1.02830000      -1.00220000       0.24860000
H       -1.77120000      -0.05670000      -0.57700000
H       -2.31920000      -2.39760000      -1.07550000
H       -1.18420000      -4.20470000       0.31320000
H        1.05270000      -4.04050000       0.35360000
H       -1.78390000      -3.08110000       2.23380000
H        0.89360000      -1.59180000       2.19790000
H       -0.39710000      -1.32250000       3.38060000
H        0.36960000      -2.90830000       3.25200000
