22
Properties=species:S:1:pos:R:3 gdb_99107=T pbc="F F F"
C        0.99070000      -2.91110000       2.91200000
C        0.28660000      -2.08170000       1.83860000
C       -1.13670000      -2.57420000       1.57000000
O       -1.79210000      -3.17780000       2.39990000
N       -1.61900000      -2.27340000       0.32340000
C       -2.98860000      -2.50800000      -0.06180000
C       -4.00300000      -1.57570000       0.57180000
C       -3.18670000      -2.98050000      -1.48130000
C       -3.36990000      -3.93980000      -0.32950000
H        1.95690000      -2.47050000       3.17320000
H        0.37010000      -2.96680000       3.80850000
H        1.16370000      -3.93510000       2.56790000
H        0.20930000      -1.03540000       2.16470000
H        0.86310000      -2.06910000       0.90580000
H       -1.06380000      -1.67340000      -0.26700000
H       -3.79770000      -0.53160000       0.30830000
H       -5.01570000      -1.81570000       0.23460000
H       -3.97090000      -1.67370000       1.66040000
H       -4.06490000      -2.62710000      -2.01040000
H       -2.30600000      -3.10200000      -2.10310000
H       -2.61030000      -4.69460000      -0.17050000
H       -4.37540000      -4.24770000      -0.06610000
