17
Properties=species:S:1:pos:R:3 gdb_55132=T pbc="F F F"
N       -0.19090000       1.08870000      -0.06510000
H       -0.08700000       0.09440000      -0.24250000
H        0.67580000       1.55360000      -0.30730000
H       -2.13740000       2.03970000      -0.45750000
C       -0.61790000       1.37580000       1.26570000
C       -0.02820000       2.46320000       2.12150000
C       -0.26360000       1.11240000       2.73870000
N       -1.69460000       1.05860000       3.11300000
C       -2.07260000       1.12250000       1.66820000
C       -3.09170000       2.15360000       1.20710000
O       -3.95500000       2.64300000       1.87630000
O       -2.94190000       2.46390000      -0.10540000
H        1.01080000       2.68160000       1.88700000
H       -0.61560000       3.31600000       2.45350000
H        0.49640000       0.52150000       3.23510000
H       -1.95050000       0.16110000       3.51000000
H       -2.39470000       0.14360000       1.28590000
