17
Properties=species:S:1:pos:R:3 gdb_42890=T pbc="F F F"
O       -0.08920000       0.00840000       0.22620000
C       -0.02420000       1.19140000       0.11280000
C       -1.02180000       2.35340000      -0.03450000
C       -1.54540000       2.89270000       1.30170000
C       -0.41760000       3.50280000       2.15030000
O        0.70250000       2.63650000       2.30190000
C        1.66100000       2.69360000       1.25750000
C        1.08680000       2.24220000      -0.08170000
O        0.06690000       3.16270000      -0.55880000
H       -1.81970000       2.20740000      -0.77000000
H       -2.30410000       3.66400000       1.12520000
H       -2.03290000       2.07130000       1.83990000
H       -0.09870000       4.45520000       1.70810000
H       -0.78770000       3.70130000       3.16080000
H        2.06510000       3.71230000       1.14920000
H        2.47290000       2.02230000       1.55500000
H        1.86350000       2.05330000      -0.83020000
