19
Properties=species:S:1:pos:R:3 gdb_82109=T pbc="F F F"
O        0.10010000       1.29450000      -0.23110000
C       -0.06000000      -0.08680000      -0.08240000
C        0.41760000      -0.68580000       1.24890000
O       -0.38040000      -0.03280000       2.25370000
C       -0.93290000      -1.17250000       1.56970000
C       -1.51500000      -0.66260000       0.24470000
C       -2.67760000       0.28660000       0.30280000
C       -3.46720000       0.59780000      -0.94240000
C       -4.09050000      -0.22970000       0.15270000
H       -0.12870000       1.68390000       0.62230000
H        0.37720000      -0.56210000      -0.96350000
H        1.39690000      -1.03840000       1.55140000
H       -1.24150000      -2.00780000       2.18740000
H       -1.73370000      -1.49710000      -0.43100000
H       -2.54840000       1.10550000       1.00330000
H       -3.81720000       1.61350000      -1.08820000
H       -3.18250000       0.09340000      -1.86010000
H       -4.22830000      -1.29110000      -0.02760000
H       -4.86770000       0.21910000       0.76120000
