18
Properties=species:S:1:pos:R:3 gdb_63993=T pbc="F F F"
C       -0.15230000       1.60160000      -0.07020000
C        0.04340000       0.08670000      -0.00680000
C       -1.30020000      -0.64730000       0.11270000
C        0.89140000      -0.47140000      -1.19630000
N        1.83100000      -1.45340000      -0.63300000
C        1.77380000      -1.28050000       0.63410000
N        0.93910000      -0.28590000       1.11870000
C        2.56740000      -2.03940000       1.56480000
N        3.17460000      -2.63650000       2.34590000
H        0.81270000       2.11380000      -0.10290000
H       -0.72330000       1.87590000      -0.96330000
H       -0.70390000       1.96750000       0.80230000
H       -1.94310000      -0.40920000      -0.74080000
H       -1.15180000      -1.73140000       0.13450000
H       -1.83260000      -0.35170000       1.02370000
H        0.27250000      -0.93800000      -1.96870000
H        1.47000000       0.32720000      -1.67870000
H        0.53000000      -0.41520000       2.03470000
