19
Properties=species:S:1:pos:R:3 gdb_110003=T pbc="F F F"
C       -0.27100000       1.49400000       0.39160000
O       -0.16320000       0.17920000      -0.13700000
C       -1.33070000      -0.57160000      -0.02400000
C       -1.27670000      -1.93990000      -0.74760000
C        0.02730000      -2.34100000      -1.40530000
O       -1.51850000      -2.64430000       0.50200000
C       -1.53150000      -1.43200000       1.26910000
C       -0.39990000      -1.37530000       2.27720000
O       -0.23710000      -0.46470000       3.04840000
H        0.68390000       1.98860000       0.20320000
H       -1.07140000       2.05440000      -0.11410000
H       -0.46500000       1.47870000       1.46990000
H       -2.21270000       0.03330000      -0.27190000
H       -2.11800000      -2.09640000      -1.43400000
H        0.87970000      -2.13520000      -0.75440000
H        0.00550000      -3.41060000      -1.63460000
H        0.16770000      -1.78850000      -2.33940000
H       -2.48460000      -1.27070000       1.78970000
H        0.27660000      -2.25770000       2.23980000
