17
Properties=species:S:1:pos:R:3 gdb_24642=T pbc="F F F"
C       -0.23690000       1.29510000      -0.34390000
C        1.16330000       1.17590000       0.17310000
C        0.28160000      -0.05910000       0.10770000
C       -0.22760000      -0.71650000       1.33500000
N       -0.32810000      -2.05250000       1.29850000
C       -0.78520000      -2.65600000       2.39690000
C       -1.14590000      -1.94810000       3.53720000
N       -1.05160000      -0.61610000       3.58950000
C       -0.59600000      -0.01450000       2.49480000
H       -0.97840000       1.78070000       0.28120000
H       -0.38880000       1.43830000      -1.40780000
H        1.98540000       1.23610000      -0.53100000
H        1.38710000       1.57930000       1.15480000
H        0.50820000      -0.77720000      -0.67160000
H       -0.86550000      -3.74000000       2.36370000
H       -1.51650000      -2.45620000       4.42320000
H       -0.51960000       1.06940000       2.53840000
