18
Properties=species:S:1:pos:R:3 gdb_106359=T pbc="F F F"
O       -0.11440000       1.40780000      -0.08070000
C        0.01480000       0.00140000       0.08730000
C       -1.36780000      -0.58330000       0.01760000
C       -2.25910000      -0.59650000      -1.26560000
C       -3.06840000      -1.62470000      -0.39300000
C       -1.67760000      -2.09930000       0.14050000
C       -3.50620000      -0.66690000       0.72800000
O       -4.59850000      -0.44270000       1.18230000
N       -2.28940000      -0.05860000       1.05640000
H        0.74880000       1.81170000       0.04670000
H        0.63920000      -0.44600000      -0.70090000
H        0.46480000      -0.24710000       1.06070000
H       -2.74790000       0.33790000      -1.54920000
H       -1.77870000      -1.06260000      -2.12980000
H       -3.82650000      -2.29360000      -0.79110000
H       -1.13870000      -2.70830000      -0.58890000
H       -1.62670000      -2.53680000       1.13960000
H       -2.27620000       0.93350000       1.25180000
