16
Properties=species:S:1:pos:R:3 gdb_98381=T pbc="F F F"
C        0.28850000       1.41360000       0.14840000
N        0.36910000      -0.03540000       0.05780000
C        0.46830000      -0.63860000      -1.16640000
N        0.45460000       0.02370000      -2.25460000
N        0.56810000      -2.07370000      -1.07080000
C       -0.39660000      -2.77840000      -0.31200000
O       -0.41480000      -3.96160000      -0.13320000
C        1.60120000      -2.70010000      -1.80680000
O        1.78180000      -3.87930000      -1.89580000
H        1.21500000       1.90390000      -0.17400000
H       -0.51680000       1.76770000      -0.49760000
H        0.07170000       1.68890000       1.18250000
H        0.80950000      -0.51730000       0.82570000
H        0.38510000      -0.58720000      -3.06400000
H       -1.14590000      -2.07830000       0.09750000
H        2.23560000      -1.93630000      -2.29230000
