23
Properties=species:S:1:pos:R:3 gdb_113794=T pbc="F F F"
C       -0.29340000       1.72410000       0.39610000
C        0.02480000       0.30450000      -0.06790000
N        0.78360000      -0.39860000       0.96190000
C        0.04990000      -1.17430000       1.95360000
C        0.89500000      -1.86150000       0.93410000
C        0.33540000      -2.75290000      -0.15760000
C       -1.14590000      -3.07740000      -0.16340000
C        1.08810000      -2.76470000      -1.44640000
N        1.17080000      -3.91510000      -0.53440000
H        0.62580000       2.26130000       0.64560000
H       -0.82200000       2.27760000      -0.38630000
H       -0.92800000       1.71010000       1.28830000
H       -0.91000000      -0.20930000      -0.34300000
H        0.64450000       0.33790000      -0.97150000
H        0.38460000      -1.08420000       2.98430000
H       -1.02990000      -1.25510000       1.83810000
H        1.88570000      -2.18670000       1.25600000
H       -1.76620000      -2.19210000      -0.33180000
H       -1.35650000      -3.79870000      -0.95680000
H       -1.44800000      -3.52640000       0.78850000
H        0.56300000      -2.95460000      -2.37910000
H        1.94980000      -2.10830000      -1.53870000
H        2.05430000      -3.89080000      -0.02990000
