18
Properties=species:S:1:pos:R:3 gdb_87533=T pbc="F F F"
C       -0.02930000       1.56250000       0.02280000
C       -0.00680000       0.05150000       0.05760000
C        1.25770000      -0.71340000      -0.22340000
C        0.69460000      -0.66850000       1.17710000
C        1.33130000      -0.14430000       2.45650000
N        0.22180000       0.02080000       3.40940000
C        0.84520000      -1.33920000       3.23010000
C        0.24630000      -1.90100000       1.94640000
O       -0.23600000      -2.94980000       1.62740000
H        0.92440000       1.98110000       0.36100000
H       -0.21070000       1.92850000      -0.99340000
H       -0.81560000       1.95780000       0.67320000
H       -0.92420000      -0.43170000      -0.27010000
H        1.19460000      -1.66360000      -0.74360000
H        2.16520000      -0.14710000      -0.41130000
H        2.27650000       0.37060000       2.56650000
H        0.61000000       0.38160000       4.28280000
H        1.28180000      -1.86300000       4.07040000
