19
Properties=species:S:1:pos:R:3 gdb_66779=T pbc="F F F"
C       -0.01730000       1.44300000       0.02370000
C       -0.00620000      -0.06420000       0.01360000
C        0.16900000      -0.84250000      -1.29360000
C       -0.59830000      -2.14430000      -1.23120000
C        0.91140000      -2.13450000      -1.03480000
C        0.73640000      -2.26720000       0.50150000
C        0.62190000      -0.86050000       1.14000000
C       -0.89130000      -0.87040000       0.94310000
C       -0.82050000      -2.27730000       0.29890000
H        0.92350000       1.85180000      -0.36270000
H       -0.83140000       1.84040000      -0.59340000
H       -0.15320000       1.83090000       1.03810000
H        0.28860000      -0.32710000      -2.23850000
H       -1.19820000      -2.54580000      -2.03910000
H        1.70320000      -2.52690000      -1.66150000
H        1.23350000      -3.07100000       1.03930000
H        1.22280000      -0.42550000       1.93070000
H       -1.68000000      -0.44440000       1.55300000
H       -1.42840000      -3.08830000       0.69290000
