23
Properties=species:S:1:pos:R:3 gdb_121396=T pbc="F F F"
C        0.02050000       1.55590000      -0.01290000
C        0.00530000       0.02570000       0.00290000
C       -1.41290000      -0.55590000       0.02220000
C       -1.44480000      -2.07910000       0.00290000
C       -2.86130000      -2.64740000       0.10640000
O       -2.85810000      -4.06240000       0.00080000
C       -2.25730000      -4.48190000      -1.21360000
C       -0.84010000      -3.93110000      -1.32300000
O       -0.84770000      -2.51710000      -1.21790000
H        1.04390000       1.94380000      -0.02630000
H       -0.49480000       1.94800000      -0.89690000
H       -0.48020000       1.96970000       0.87010000
H        0.53200000      -0.36470000      -0.87380000
H        0.55540000      -0.33900000       0.88060000
H       -1.94580000      -0.20940000       0.91790000
H       -1.97650000      -0.18520000      -0.84390000
H       -0.85620000      -2.47780000       0.84870000
H       -3.30630000      -2.40820000       1.07700000
H       -3.48750000      -2.20610000      -0.68770000
H       -2.25550000      -5.57630000      -1.20650000
H       -2.85300000      -4.13500000      -2.07430000
H       -0.21400000      -4.36980000      -0.52870000
H       -0.39670000      -4.17570000      -2.29360000
