17
Properties=species:S:1:pos:R:3 gdb_116886=T pbc="F F F"
O       -0.18520000       1.52000000       0.20230000
C       -0.17680000       0.13300000       0.48890000
C       -0.91180000      -0.55970000      -0.66510000
C       -0.97040000      -2.00580000      -0.50460000
C       -1.00430000      -3.19770000      -0.33290000
C       -1.06670000      -4.65410000      -0.16890000
O       -1.87910000      -5.07090000       0.89480000
C       -1.57360000      -5.24820000      -1.48850000
O       -2.56650000      -5.92830000      -1.52370000
H        0.24760000       1.98170000       0.92600000
H        0.84670000      -0.26420000       0.56090000
H       -0.68890000      -0.09350000       1.43540000
H       -1.92320000      -0.14200000      -0.73510000
H       -0.40470000      -0.30290000      -1.60320000
H       -0.04150000      -5.03840000      -0.02360000
H       -2.62150000      -5.54020000       0.48050000
H       -0.98540000      -4.99910000      -2.39180000
