15
Properties=species:S:1:pos:R:3 gdb_99436=T pbc="F F F"
C       -0.01100000       1.47020000      -0.16150000
N       -0.04090000       0.05420000       0.20090000
C       -1.36750000      -0.55650000       0.06050000
C       -1.90180000      -0.57820000      -1.31600000
C       -2.28930000      -0.56550000      -2.45320000
C       -1.34570000      -1.91510000       0.61540000
C       -1.32680000      -3.03350000       1.06800000
C       -1.30290000      -4.29880000       1.58140000
N       -1.28240000      -5.37500000       2.01760000
H        1.01420000       1.83380000      -0.05750000
H       -0.35910000       1.68230000      -1.18380000
H       -0.63830000       2.03430000       0.53740000
H        0.61670000      -0.46630000      -0.37120000
H       -2.05270000       0.04010000       0.68210000
H       -2.64410000      -0.56310000      -3.45480000
