17
Properties=species:S:1:pos:R:3 gdb_123807=T pbc="F F F"
C       -0.35200000       1.04990000      -0.25920000
C        1.07890000       1.11370000       0.23920000
C        0.42590000      -0.20870000       0.01580000
O        0.13830000      -0.94530000       1.17280000
C       -0.88280000      -1.83750000       1.05980000
C       -1.24380000      -2.73430000       2.04660000
N       -2.29580000      -3.42810000       1.53660000
N       -2.63940000      -3.05170000       0.29820000
C       -1.78130000      -2.07600000      -0.00580000
H       -1.13330000       1.30420000       0.44760000
H       -0.56240000       1.31520000      -1.28950000
H        1.86160000       1.42380000      -0.44340000
H        1.22960000       1.40770000       1.27150000
H        0.74310000      -0.82290000      -0.82510000
H       -0.84160000      -2.91550000       3.02910000
H       -2.81420000      -4.16450000       1.98320000
H       -1.83930000      -1.58270000      -0.96270000
