21
Properties=species:S:1:pos:R:3 gdb_70446=T pbc="F F F"
C       -0.08050000       1.50710000      -0.05110000
C        0.15280000       0.03220000      -0.00790000
O       -0.77040000      -0.77760000       0.74080000
C        0.62990000      -0.88190000       1.04530000
C        1.23390000      -1.85170000       0.02590000
C        0.73000000      -0.88650000      -1.11540000
C       -0.23750000      -1.41690000      -2.13710000
C       -0.41500000      -0.71680000      -3.46340000
C        0.26290000      -2.06320000      -3.40500000
H        0.81830000       2.03390000      -0.38820000
H       -0.89270000       1.75090000      -0.74510000
H       -0.35580000       1.87950000       0.93930000
H        0.92380000      -0.68820000       2.07120000
H        2.32350000      -1.91980000       0.07180000
H        0.80330000      -2.85610000       0.03610000
H        1.58290000      -0.40740000      -1.60940000
H       -1.13280000      -1.84790000      -1.69910000
H       -1.41180000      -0.65830000      -3.88630000
H        0.20320000       0.15170000      -3.66780000
H        1.33550000      -2.09680000      -3.56820000
H       -0.26940000      -2.92650000      -3.78880000
