19
Properties=species:S:1:pos:R:3 gdb_108586=T pbc="F F F"
C       -0.23010000       1.46980000       0.20940000
C        0.34760000       0.06180000       0.02090000
C        0.75700000      -0.58070000       1.31790000
O        1.79870000       0.08280000       2.03720000
C        2.83230000      -0.88430000       2.16470000
O        2.19530000      -2.13070000       2.34160000
C        1.00400000      -2.04540000       1.59040000
C       -0.15690000      -1.32310000       2.27370000
O       -0.14220000      -1.03350000       3.62550000
H        0.50290000       2.12530000       0.68780000
H       -0.50590000       1.91090000      -0.75270000
H       -1.12350000       1.44690000       0.84160000
H       -0.39160000      -0.58830000      -0.46260000
H        1.21640000       0.09760000      -0.64930000
H        3.45760000      -0.88940000       1.25590000
H        3.43380000      -0.65280000       3.04770000
H        0.85210000      -2.83620000       0.86230000
H       -1.15200000      -1.57560000       1.91570000
H        0.58980000      -0.41610000       3.75990000
