21
Properties=species:S:1:pos:R:3 gdb_89158=T pbc="F F F"
C        0.45940000       1.54570000      -0.05550000
C        0.12680000       0.07740000       0.08130000
O        0.87390000      -0.78580000      -0.83150000
C        1.26400000      -1.67930000       0.23990000
C        0.92910000      -3.11870000      -0.03970000
C        2.62800000      -1.28480000       0.85820000
C        3.71230000      -0.70320000      -0.01970000
O        1.96890000      -0.29930000       1.71240000
C        0.66130000      -0.71650000       1.28650000
H        1.49500000       1.73310000       0.23450000
H        0.31080000       1.86970000      -1.09010000
H       -0.19750000       2.14310000       0.58610000
H       -0.95010000      -0.09570000      -0.06300000
H        1.49500000      -3.47270000      -0.90900000
H        1.18110000      -3.75450000       0.81460000
H       -0.13490000      -3.23610000      -0.26390000
H        3.02820000      -2.09280000       1.48870000
H        3.28730000      -0.00670000      -0.74500000
H        4.45020000      -0.17860000       0.59510000
H        4.23010000      -1.50190000      -0.56200000
H       -0.00480000      -0.96430000       2.11570000
