22
Properties=species:S:1:pos:R:3 gdb_120088=T pbc="F F F"
C        0.04670000       1.59640000       0.27990000
C        0.17470000       0.08200000       0.10270000
C        0.40080000      -0.33430000      -1.35820000
C        0.52360000      -1.85380000      -1.49500000
C       -0.04740000      -2.79740000      -2.52880000
C        0.15300000      -2.36240000      -4.00780000
N        0.81210000      -1.03070000      -4.04870000
C        1.60950000      -2.26250000      -3.81110000
C        1.46870000      -2.69330000      -2.32400000
H        0.95080000       2.11220000      -0.06300000
H       -0.79530000       1.99230000      -0.29910000
H       -0.11360000       1.86680000       1.32860000
H        1.00400000      -0.29080000       0.71960000
H       -0.73050000      -0.40980000       0.48500000
H       -0.42180000       0.03460000      -1.97700000
H        1.30060000       0.15290000      -1.74400000
H        0.42550000      -2.33950000      -0.52170000
H       -0.69920000      -3.62050000      -2.26230000
H       -0.41800000      -2.73190000      -4.84950000
H        0.92880000      -0.79230000      -5.03400000
H        2.42670000      -2.53660000      -4.46530000
H        2.13130000      -3.42620000      -1.87990000
