19
Properties=species:S:1:pos:R:3 gdb_26253=T pbc="F F F"
C        0.03810000       1.38160000       0.04880000
N       -0.15720000      -0.05650000      -0.02460000
C        0.20700000      -0.82770000       1.15090000
C       -0.06110000      -0.62660000      -1.26200000
N       -0.01790000      -0.02610000      -2.41600000
C       -0.00830000      -1.07880000      -3.33010000
C       -0.03010000      -2.26610000      -2.68930000
C       -0.01860000      -3.69350000      -3.08690000
O       -0.06170000      -1.98180000      -1.32670000
H        1.10300000       1.65720000       0.09130000
H       -0.40050000       1.84710000      -0.83340000
H       -0.45610000       1.76250000       0.94750000
H       -0.27860000      -0.38750000       2.02670000
H       -0.13570000      -1.85650000       1.04320000
H        1.29400000      -0.83770000       1.32970000
H        0.02110000      -0.89810000      -4.39360000
H        0.85520000      -4.22280000      -2.68790000
H       -0.91140000      -4.22430000      -2.73490000
H        0.01040000      -3.76620000      -4.17680000
