19
Properties=species:S:1:pos:R:3 gdb_66107=T pbc="F F F"
C        0.02960000       1.52900000      -0.03970000
C        0.01700000       0.00070000       0.03090000
O        0.76720000      -0.48460000      -1.09590000
C        1.26370000      -1.78650000      -0.78530000
C        1.53780000      -1.76660000       0.70770000
C        2.24520000      -0.53820000       1.21980000
C        0.73940000      -0.60410000       1.24130000
C       -1.36690000      -0.50710000      -0.01380000
C       -2.49340000      -0.92570000      -0.04950000
H        1.05700000       1.89490000       0.02340000
H       -0.40950000       1.86350000      -0.98250000
H       -0.55210000       1.95080000       0.78400000
H        0.51960000      -2.56040000      -1.02570000
H        2.14960000      -1.94510000      -1.40860000
H        1.61090000      -2.70570000       1.24260000
H        2.75180000      -0.61240000       2.17540000
H        2.72860000       0.11220000       0.49780000
H        0.20600000      -0.65250000       2.18210000
H       -3.48950000      -1.29190000      -0.08840000
