20
Properties=species:S:1:pos:R:3 gdb_36232=T pbc="F F F"
N       -0.17360000      -1.09210000       0.58670000
C       -0.11990000       0.02020000       0.27740000
C       -0.03090000       1.43260000      -0.10750000
C        1.39530000       1.95490000      -0.11060000
C        1.95190000       2.41130000      -1.23400000
C        3.33700000       2.99780000      -1.31040000
C        3.90830000       3.32460000       0.07650000
C        3.62790000       2.18350000       1.06020000
C        2.11850000       1.95140000       1.21640000
H       -0.48680000       1.55330000      -1.09540000
H       -0.64670000       2.00610000       0.59950000
H        1.38810000       2.36690000      -2.16410000
H        3.99680000       2.29070000      -1.83530000
H        3.31900000       3.89740000      -1.93840000
H        4.98320000       3.51980000       0.00490000
H        3.44410000       4.24620000       0.45110000
H        4.09640000       1.26310000       0.68920000
H        4.07580000       2.39320000       2.03690000
H        1.68060000       2.72560000       1.86550000
H        1.93430000       1.00000000       1.73090000
