12
Properties=species:S:1:pos:R:3 gdb_123308=T pbc="F F F"
C        0.06910000      -1.18750000      -0.00470000
C        0.02560000       0.01480000       0.00250000
C       -0.01070000       1.42380000       0.01100000
C       -1.09100000       2.25660000       0.02960000
O       -0.70190000       3.53420000       0.03190000
N        0.68210000       3.59980000       0.01460000
C        1.09750000       2.34810000       0.00220000
C        2.47600000       2.02900000      -0.01720000
C        3.63860000       1.72480000      -0.03380000
H        0.10840000      -2.24870000      -0.01100000
H       -2.15400000       2.07520000       0.04210000
H        4.66820000       1.46380000      -0.04880000
