17
Properties=species:S:1:pos:R:3 gdb_20181=T pbc="F F F"
C        0.01260000       1.61790000       0.05980000
C        1.54450000       1.57580000       0.14240000
C        1.53690000       0.06590000       0.19390000
C        0.02030000       0.05420000      -0.08950000
O       -0.32990000      -0.48580000      -1.34830000
C        0.20760000       0.26390000      -2.42870000
C        1.70960000       0.57060000      -2.25540000
N        2.18880000       0.77310000      -0.88400000
H       -0.42510000       1.89820000       1.02170000
H       -0.45180000       2.22400000      -0.72040000
H        2.16900000       2.27170000       0.69130000
H        2.10200000      -0.63340000       0.80140000
H       -0.59190000      -0.46500000       0.64900000
H        0.05750000      -0.34450000      -3.32520000
H       -0.36690000       1.19070000      -2.56450000
H        2.29420000      -0.27360000      -2.63880000
H        1.97860000       1.44760000      -2.85400000
