18
Properties=species:S:1:pos:R:3 gdb_7158=T pbc="F F F"
C        0.87360000       1.23730000      -0.26180000
O        0.91710000      -0.16310000      -0.39270000
C       -0.19380000      -0.68610000      -1.07610000
C       -0.03300000      -2.21100000      -1.18610000
O       -1.24520000      -2.78370000      -1.67490000
C        1.12160000      -2.58790000      -2.00010000
C        2.03650000      -2.89740000      -2.71980000
C        3.15700000      -3.27690000      -3.56760000
H        0.86400000       1.73880000      -1.24260000
H       -0.01410000       1.56850000       0.30030000
H        1.77040000       1.54290000       0.28240000
H       -1.13220000      -0.48140000      -0.53640000
H       -0.28290000      -0.25050000      -2.08620000
H        0.09140000      -2.60120000      -0.16900000
H       -1.21570000      -2.73490000      -2.63630000
H        3.01940000      -4.28180000      -3.98170000
H        3.27790000      -2.58360000      -4.40710000
H        4.09430000      -3.27800000      -3.00070000
