22
Properties=species:S:1:pos:R:3 gdb_93231=T pbc="F F F"
C        0.03040000       1.57390000       0.04600000
C        0.02280000       0.04480000      -0.02040000
C        0.70350000      -0.50310000      -1.27650000
C        0.57000000      -2.02520000      -1.31050000
C        0.93500000      -2.73980000      -0.01230000
O        1.20550000      -3.93000000      -0.01770000
N        0.89740000      -1.99820000       1.14370000
C        1.27550000      -2.63530000       2.39380000
C        0.70720000      -0.55280000       1.21060000
H        1.05450000       1.96430000       0.03020000
H       -0.50230000       2.00210000      -0.80860000
H       -0.45250000       1.93950000       0.95850000
H       -1.02130000      -0.29950000      -0.02560000
H        0.26660000      -0.06200000      -2.17940000
H        1.76360000      -0.21460000      -1.26830000
H       -0.46780000      -2.30480000      -1.53490000
H        1.18240000      -2.47920000      -2.09330000
H        1.41440000      -3.69850000       2.20590000
H        2.20980000      -2.21020000       2.78490000
H        0.49350000      -2.49040000       3.14900000
H        1.68340000      -0.05970000       1.35860000
H        0.11410000      -0.33200000       2.10790000
