17
Properties=species:S:1:pos:R:3 gdb_34865=T pbc="F F F"
N       -0.04170000      -1.13180000      -0.08260000
C        0.00010000       0.02270000      -0.04380000
C        0.01400000       1.47650000       0.05090000
C       -0.13290000       2.06690000       1.49140000
C        1.40280000       1.92920000       1.54800000
N        1.42280000       2.04440000       0.03730000
C        1.28450000       3.47570000      -0.30870000
C        0.41960000       4.24930000       0.72330000
O       -0.54600000       3.41080000       1.36930000
H       -0.66050000       1.90610000      -0.69410000
H       -0.78390000       1.58270000       2.22170000
H        1.98140000       2.67830000       2.09090000
H        1.72670000       0.92960000       1.84450000
H        2.28360000       3.92220000      -0.35210000
H        0.85850000       3.53180000      -1.31520000
H        1.06540000       4.70130000       1.48720000
H       -0.13950000       5.06000000       0.24900000
