11
Properties=species:S:1:pos:R:3 gdb_11632=T pbc="F F F"
O       -0.06960000      -0.05800000      -0.08430000
C       -0.05170000       1.11360000       0.03700000
C       -0.93020000       2.39130000       0.04760000
C       -0.01850000       2.96920000       1.15610000
C        0.93050000       2.35750000       0.09330000
O        0.03750000       2.90580000      -0.95970000
C        2.35100000       2.47810000      -0.04910000
N        3.50260000       2.53510000      -0.13150000
H       -1.98740000       2.54700000      -0.14470000
H        0.00600000       4.05930000       1.15840000
H       -0.04010000       2.52490000       2.15310000
