18
Properties=species:S:1:pos:R:3 gdb_76565=T pbc="F F F"
C       -0.11090000       1.51510000       0.05160000
C        0.04400000       0.01120000       0.06520000
C        1.38870000      -0.64290000      -0.19360000
O        2.53730000       0.14940000      -0.30060000
C        0.78580000      -0.69740000       1.18200000
C        1.43290000       0.01670000       2.37310000
O        1.22790000      -0.91900000       3.46300000
C        0.57220000      -1.97020000       2.91790000
N        0.27750000      -1.95840000       1.68330000
H        0.82240000       2.01530000       0.32410000
H       -0.39560000       1.86720000      -0.94610000
H       -0.88920000       1.84300000       0.74890000
H       -0.80770000      -0.55000000      -0.30930000
H        1.40630000      -1.57210000      -0.76050000
H        2.53930000       0.56530000      -1.16930000
H        2.50550000       0.17980000       2.24410000
H        0.95480000       0.96280000       2.64390000
H        0.34390000      -2.76930000       3.61360000
