21
Properties=species:S:1:pos:R:3 gdb_96054=T pbc="F F F"
O       -0.09760000       1.45600000       0.64430000
C       -0.01530000       0.14300000       0.09610000
C        0.75280000      -0.81470000       1.01700000
C       -0.24710000      -1.16950000       2.14900000
C       -1.65620000      -0.82300000       1.59030000
C       -1.43590000      -0.44160000       0.10680000
C       -2.50880000       0.48260000      -0.48600000
C       -3.85170000      -0.20280000      -0.58210000
O       -4.88420000       0.21740000      -0.12730000
H        0.79760000       1.79150000       0.75100000
H        0.40630000       0.17840000      -0.91980000
H        1.03240000      -1.70940000       0.44860000
H        1.68330000      -0.37030000       1.38620000
H       -0.16420000      -2.22260000       2.43030000
H       -0.03930000      -0.58670000       3.04940000
H       -2.36510000      -1.64880000       1.69730000
H       -2.07880000       0.03180000       2.12560000
H       -1.39630000      -1.36180000      -0.49320000
H       -2.60830000       1.39950000       0.09790000
H       -2.21580000       0.75990000      -1.50990000
H       -3.82670000      -1.17530000      -1.13260000
