13
Properties=species:S:1:pos:R:3 gdb_42243=T pbc="F F F"
O       -0.02410000      -0.04290000       0.32570000
C       -0.06000000       1.15560000       0.14370000
C        1.15790000       1.99270000       0.18440000
N        2.12360000       2.62620000       0.22120000
N       -1.17630000       1.86720000      -0.11230000
C       -1.46070000       3.29020000      -0.35990000
C       -2.94360000       2.85870000      -0.49550000
O       -3.96010000       3.43260000      -0.71660000
C       -2.55780000       1.38590000      -0.22680000
H       -1.24900000       3.95720000       0.48260000
H       -1.01330000       3.69890000      -1.27220000
H       -2.73120000       0.69530000      -1.05910000
H       -2.96630000       0.95340000       0.69300000
