18
Properties=species:S:1:pos:R:3 gdb_76946=T pbc="F F F"
C       -0.36620000       1.41600000      -0.12060000
N       -0.00850000       0.01080000       0.07480000
C        1.28450000      -0.51830000      -0.33620000
C        2.41620000       0.29400000      -0.85940000
O        2.61700000       1.47000000      -0.65550000
C        0.87460000      -0.39550000       1.14760000
C        1.54610000       0.56010000       2.10470000
C        0.45690000      -1.72020000       1.73440000
O        0.78750000      -2.11590000       2.82130000
H        0.46640000       2.11790000      -0.03230000
H       -0.80100000       1.51400000      -1.11940000
H       -1.14020000       1.66690000       0.61030000
H        1.23240000      -1.50650000      -0.79340000
H        3.10500000      -0.29500000      -1.50400000
H        2.08580000       1.35290000       1.58890000
H        0.79580000       1.01240000       2.76170000
H        2.23600000      -0.00020000       2.73960000
H       -0.20060000      -2.30840000       1.05760000
