23
Properties=species:S:1:pos:R:3 gdb_123165=T pbc="F F F"
C       -0.14790000       1.49910000       0.22000000
C       -0.05250000      -0.00700000       0.04260000
O       -1.35860000      -0.54310000       0.03180000
C       -1.38900000      -1.94370000      -0.12370000
C       -2.83970000      -2.40560000      -0.09970000
C       -2.97910000      -3.92290000      -0.27430000
C       -4.41930000      -4.37220000      -0.23650000
C       -4.83380000      -5.64880000       0.35640000
O       -5.04030000      -4.41800000       1.05210000
H        0.85050000       1.94660000       0.23400000
H       -0.71810000       1.94620000      -0.59930000
H       -0.65180000       1.74260000       1.15970000
H        0.46910000      -0.25360000      -0.89850000
H        0.53690000      -0.45610000       0.86070000
H       -0.90780000      -2.23620000      -1.07440000
H       -0.81800000      -2.43370000       0.68510000
H       -3.29450000      -2.10310000       0.84960000
H       -3.38620000      -1.88250000      -0.89390000
H       -2.53780000      -4.23400000      -1.23130000
H       -2.42790000      -4.44510000       0.51710000
H       -5.05940000      -3.94660000      -1.01280000
H       -5.73680000      -6.14620000       0.00450000
H       -4.08080000      -6.30810000       0.78720000
