18
Properties=species:S:1:pos:R:3 gdb_124707=T pbc="F F F"
C       -0.06740000       1.55900000       0.01150000
C        0.03810000       0.03450000      -0.00290000
C        0.74280000      -0.49720000      -1.25730000
O       -0.05850000      -0.12740000      -2.36630000
N        0.73070000      -0.46430000       1.18420000
N        1.98760000      -0.13510000       1.46120000
C        2.24350000      -0.79290000       2.59470000
C        1.09850000      -1.50980000       2.96110000
N        0.14850000      -1.28810000       2.04880000
H        0.92770000       2.00950000       0.05730000
H       -0.56420000       1.89010000      -0.90240000
H       -0.64410000       1.89990000       0.87530000
H       -0.95580000      -0.41490000       0.04820000
H        1.75210000      -0.06590000      -1.31510000
H        0.84360000      -1.58970000      -1.17440000
H        0.40720000      -0.37160000      -3.17080000
H        3.20630000      -0.71900000       3.07460000
H        0.91580000      -2.15180000       3.80770000
