16
Properties=species:S:1:pos:R:3 gdb_45939=T pbc="F F F"
N       -0.06400000       1.24630000       0.31040000
C       -0.03760000       0.02530000      -0.00470000
O        1.08680000      -0.65460000      -0.40690000
C        0.80380000      -2.02620000      -0.69740000
C       -0.69270000      -2.22230000      -0.44110000
O       -1.30720000      -3.25040000      -0.57740000
C       -1.19430000      -0.89990000      -0.00360000
C       -2.31450000      -0.79080000       1.03020000
C       -2.60120000      -0.43410000      -0.37640000
H        0.86090000       1.66890000       0.22890000
H        1.05530000      -2.24640000      -1.74060000
H        1.40120000      -2.67610000      -0.04880000
H       -2.68570000      -1.73720000       1.40790000
H       -2.18720000       0.00920000       1.75000000
H       -2.67410000       0.61490000      -0.63840000
H       -3.17220000      -1.13180000      -0.97900000
