17
Properties=species:S:1:pos:R:3 gdb_48774=T pbc="F F F"
O       -0.13440000      -0.00450000       0.08500000
C       -0.00620000       1.18410000      -0.09310000
C        1.27680000       1.90420000      -0.06450000
C        1.31030000       3.38060000       0.32090000
C        1.58400000       3.01640000      -1.09520000
C        3.02060000       2.81270000      -1.58820000
C        3.59780000       1.66940000      -0.76310000
O        3.64570000       1.91230000       0.64990000
C        2.56010000       1.13100000       0.12970000
H       -0.88790000       1.83400000      -0.30310000
H        0.35440000       3.84650000       0.53860000
H        2.13170000       3.67180000       0.96320000
H        0.82950000       3.27250000      -1.83160000
H        3.01190000       2.52160000      -2.64420000
H        3.62590000       3.72160000      -1.50390000
H        4.42140000       1.07760000      -1.15550000
H        2.50270000       0.09950000       0.45860000
