23
Properties=species:S:1:pos:R:3 gdb_98457=T pbc="F F F"
C       -1.37990000       1.75230000      -1.03440000
C       -1.30660000       0.22900000      -1.10870000
C       -1.82400000      -0.45880000       0.15030000
O       -2.23710000       0.19390000       1.08790000
C       -1.88160000      -1.96660000       0.16800000
C       -1.01980000      -2.77430000      -0.79280000
C        0.46750000      -2.81010000      -0.41460000
C       -2.21340000      -2.58350000       1.51290000
C       -3.28950000      -2.48600000       0.48200000
H       -1.00110000       2.20130000      -1.95700000
H       -2.40860000       2.08740000      -0.88110000
H       -0.78970000       2.13030000      -0.19580000
H       -1.88690000      -0.15240000      -1.96050000
H       -0.27810000      -0.10370000      -1.29620000
H       -1.40120000      -3.80210000      -0.81120000
H       -1.13590000      -2.39860000      -1.81610000
H        0.60580000      -3.23820000       0.58330000
H        1.03680000      -3.41800000      -1.12450000
H        0.91290000      -1.81000000      -0.40400000
H       -1.78580000      -3.55850000       1.72050000
H       -2.26350000      -1.90110000       2.35230000
H       -4.06310000      -1.74200000       0.63290000
H       -3.60600000      -3.38420000      -0.03770000
