17
Properties=species:S:1:pos:R:3 gdb_32240=T pbc="F F F"
C       -0.02290000       1.45480000      -0.00050000
N       -0.00830000       0.00150000       0.07700000
C       -1.20700000      -0.68840000       0.04550000
N       -2.35240000      -0.03330000       0.11860000
C       -3.48010000      -0.76990000       0.08760000
C       -3.45110000      -2.14190000      -0.03730000
N       -2.28750000      -2.82270000      -0.08350000
C       -1.17820000      -2.11540000      -0.02920000
N        0.05360000      -2.76690000      -0.09780000
H        1.00660000       1.81630000       0.05270000
H       -0.49250000       1.83010000      -0.91960000
H       -0.58490000       1.85960000       0.84330000
H        0.71490000      -0.44490000      -0.47080000
H       -4.41840000      -0.22730000       0.15320000
H       -4.36320000      -2.72810000      -0.08780000
H       -0.05860000      -3.77060000      -0.02360000
H        0.73280000      -2.41700000       0.56790000
