22
Properties=species:S:1:pos:R:3 gdb_90483=T pbc="F F F"
C       -0.27170000       1.41330000       0.26780000
C        0.01000000      -0.06880000       0.05630000
C        1.06530000      -0.37350000      -1.05810000
C        2.00100000      -0.97400000      -0.00210000
C        0.96180000      -0.68280000       1.09850000
C        1.32840000      -2.09150000       0.73970000
N        0.39140000      -2.96840000       0.09050000
C        0.84080000      -4.33500000      -0.15190000
C       -0.16540000      -4.04230000       0.90640000
H        0.65850000       1.97830000       0.39960000
H       -0.80390000       1.83800000      -0.59060000
H       -0.88880000       1.57710000       1.15870000
H       -0.92870000      -0.61900000      -0.05900000
H        0.75280000      -1.04880000      -1.85850000
H        1.46470000       0.54470000      -1.49710000
H        3.07880000      -0.85790000       0.02030000
H        1.10810000      -0.29730000       2.10240000
H        1.98060000      -2.56770000       1.48030000
H        0.53760000      -4.77390000      -1.09830000
H        1.84370000      -4.60580000       0.17510000
H        0.16400000      -4.11710000       1.94160000
H       -1.21710000      -4.26320000       0.74700000
