18
Properties=species:S:1:pos:R:3 gdb_26307=T pbc="F F F"
C        0.17580000       1.05200000       0.88110000
N        0.16600000      -0.22760000       0.16880000
C        0.76440000      -0.14520000      -1.16530000
C       -1.02740000      -0.91920000       0.23020000
C       -1.37190000      -2.07570000       0.80780000
N       -2.72120000      -2.29040000       0.54550000
C       -3.22710000      -1.25080000      -0.20880000
N       -4.42200000      -1.13710000      -0.61950000
O       -2.17470000      -0.38720000      -0.41110000
H        1.20880000       1.40330000       0.97070000
H       -0.41150000       1.83250000       0.37230000
H       -0.23070000       0.90930000       1.88490000
H        0.77630000      -1.13950000      -1.61740000
H        0.22450000       0.53960000      -1.83780000
H        1.79680000       0.20730000      -1.07280000
H       -0.77080000      -2.75950000       1.38100000
H       -3.28550000      -3.06730000       0.83620000
H       -4.53590000      -0.28020000      -1.15380000
