18
Properties=species:S:1:pos:R:3 gdb_44628=T pbc="F F F"
N        0.36020000       0.99200000       0.42250000
C        0.11340000      -0.16720000       0.01320000
O        0.93170000      -1.07440000      -0.65030000
C       -0.16790000      -2.03360000      -0.77560000
C       -0.24720000      -3.10060000       0.35240000
C        0.83400000      -3.03270000       1.46500000
C       -0.07540000      -2.06560000       2.29140000
C       -1.15980000      -2.13330000       1.18110000
C       -1.09230000      -1.07750000       0.01690000
H        1.32420000       1.26130000       0.21680000
H       -0.30620000      -2.33520000      -1.81380000
H       -0.57880000      -4.08570000       0.02170000
H        1.00330000      -3.99520000       1.95190000
H        1.79530000      -2.62610000       1.14710000
H       -0.41020000      -2.48950000       3.24090000
H        0.33250000      -1.07150000       2.48550000
H       -2.17360000      -2.39700000       1.48130000
H       -2.03210000      -0.66920000      -0.34900000
