13
Properties=species:S:1:pos:R:3 gdb_25248=T pbc="F F F"
N       -0.05530000       1.32950000       0.01060000
C       -0.06780000       0.06790000       0.00390000
O        1.05650000      -0.75120000      -0.00660000
C        0.72280000      -2.16540000      -0.01240000
C       -0.76790000      -2.14280000      -0.00430000
C       -1.17910000      -0.86240000       0.00480000
O       -2.53360000      -0.83410000       0.01220000
C       -2.85780000      -2.16110000       0.00670000
N       -1.85560000      -2.99130000      -0.00300000
H        0.90350000       1.68050000       0.00740000
H        1.15970000      -2.62270000      -0.90690000
H        1.16920000      -2.63220000       0.87240000
H       -3.91170000      -2.39140000       0.01110000
