17
Properties=species:S:1:pos:R:3 gdb_48844=T pbc="F F F"
O       -0.00570000      -0.02410000       0.16220000
C        0.07970000       1.13150000      -0.15390000
C        1.30590000       1.96830000      -0.04740000
C        1.09270000       3.45210000       0.21110000
C        1.52800000       2.99580000      -1.15460000
C        2.97850000       3.15690000      -1.60250000
O        3.78110000       2.04400000      -1.22550000
C        3.66180000       1.77590000       0.13510000
O        2.38460000       1.27930000       0.48850000
H       -0.78930000       1.69820000      -0.56590000
H        0.07600000       3.80520000       0.34540000
H        1.82640000       3.94220000       0.84280000
H        0.78500000       3.02320000      -1.94510000
H        3.03520000       3.21060000      -2.69130000
H        3.41280000       4.08170000      -1.19190000
H        4.36680000       0.98070000       0.38140000
H        3.89320000       2.68140000       0.72680000
