17
Properties=species:S:1:pos:R:3 gdb_97094=T pbc="F F F"
C       -0.11150000       1.40750000      -0.06590000
N       -0.20080000      -0.03650000      -0.23610000
C        0.59130000      -0.62460000      -0.99390000
O        1.64070000      -0.16970000      -1.77400000
C        1.93600000      -1.51010000      -2.25470000
C        0.79410000      -2.09740000      -1.37010000
C        1.22220000      -2.99600000      -0.20330000
C       -0.30820000      -2.68350000      -2.12490000
N       -1.16670000      -3.16240000      -2.73230000
H        0.70220000       1.87530000      -0.63140000
H       -1.06110000       1.85770000      -0.37310000
H        0.02060000       1.63080000       0.99780000
H        1.79060000      -1.58730000      -3.33350000
H        2.94380000      -1.82240000      -1.97120000
H        2.06470000      -2.54230000       0.32550000
H        0.39460000      -3.11150000       0.49980000
H        1.51870000      -3.98450000      -0.56380000
