21
Properties=species:S:1:pos:R:3 gdb_76579=T pbc="F F F"
O        0.14650000       1.38110000       0.06160000
C        0.04930000      -0.00950000      -0.00170000
C       -0.50250000      -0.73010000       1.20410000
O       -0.95860000       0.09660000       2.24960000
C       -1.31230000      -0.67870000      -0.07010000
C       -2.59190000       0.16390000      -0.14660000
C       -3.42250000      -0.50690000      -1.25930000
C       -3.03800000      -1.99190000      -1.16330000
C       -1.51880000      -1.95020000      -0.90550000
H       -0.27320000       1.63830000       0.89460000
H        0.87220000      -0.44530000      -0.56310000
H       -0.08660000      -1.68580000       1.52160000
H       -0.23060000       0.21410000       2.87030000
H       -3.12760000       0.12940000       0.80810000
H       -2.37190000       1.21390000      -0.35750000
H       -4.49620000      -0.32960000      -1.15020000
H       -3.12450000      -0.11240000      -2.23840000
H       -3.54870000      -2.45230000      -0.30860000
H       -3.30330000      -2.57000000      -2.05320000
H       -0.97900000      -1.86540000      -1.85760000
H       -1.14800000      -2.85210000      -0.40750000
