18
Properties=species:S:1:pos:R:3 gdb_41874=T pbc="F F F"
C       -0.00830000       1.43440000      -0.02860000
C        1.46860000       1.93380000       0.01620000
C        2.17680000       0.67840000       0.50530000
O        3.54530000       0.52210000       0.14460000
C        3.93340000      -0.78830000       0.22850000
N        3.23770000      -1.83060000       0.39990000
C        1.76920000      -1.74850000       0.45250000
C        1.32900000      -0.41740000      -0.12300000
O        0.00960000       0.00340000       0.14960000
H       -0.61820000       1.85670000       0.77510000
H       -0.48230000       1.68570000      -0.98550000
H        1.83180000       2.19630000      -0.98150000
H        1.60020000       2.79890000       0.66850000
H        2.09900000       0.59620000       1.59820000
H        5.01470000      -0.85510000       0.12890000
H        1.36510000      -2.59950000      -0.10410000
H        1.43080000      -1.85450000       1.49040000
H        1.52360000      -0.42300000      -1.21110000
