17
Properties=species:S:1:pos:R:3 gdb_3507=T pbc="F F F"
C        0.00470000       1.30460000      -0.21890000
O       -0.05660000       0.03790000       0.39860000
C       -1.28670000      -0.60150000       0.22150000
C       -1.57880000      -1.39630000      -1.09700000
C       -0.50480000      -2.42170000      -0.62210000
C       -1.34590000      -2.08570000       0.64870000
C       -2.61000000      -2.19500000      -0.25230000
H        0.97690000       1.73930000       0.02500000
H       -0.08940000       1.23470000      -1.31270000
H       -0.78670000       1.97470000       0.15210000
H       -2.10980000       0.03900000       0.57470000
H       -1.72140000      -0.99880000      -2.10280000
H       -0.60450000      -3.43840000      -1.01130000
H        0.53030000      -2.08230000      -0.62200000
H       -1.21460000      -2.47910000       1.65730000
H       -3.50650000      -1.66210000       0.07920000
H       -2.85120000      -3.19600000      -0.61580000
