16
Properties=species:S:1:pos:R:3 gdb_4178=T pbc="F F F"
C       -0.17470000       1.60360000       0.02540000
C        0.06880000       0.10480000       0.02580000
N        0.69090000      -0.52370000      -1.21450000
C        2.06850000      -0.03050000      -1.29770000
C        1.78890000      -1.11810000      -0.32420000
C        1.14370000      -0.55060000       0.88260000
N        1.34010000      -0.77830000       2.11270000
O        0.40290000      -0.07670000       2.89980000
H        0.74340000       2.18210000      -0.10460000
H       -0.86660000       1.86990000      -0.78010000
H       -0.61960000       1.89740000       0.97970000
H       -0.87850000      -0.41690000       0.20250000
H        2.56290000      -0.31820000      -2.22080000
H        2.32150000       0.96380000      -0.94110000
H        2.15910000      -2.12960000      -0.44290000
H        0.64740000      -0.34460000       3.79200000
