18
Properties=species:S:1:pos:R:3 gdb_93878=T pbc="F F F"
C        0.26830000       1.53110000      -0.19840000
C        0.10590000       0.03520000      -0.00880000
O        0.70600000      -0.64670000      -1.10990000
C        0.98000000      -1.96720000      -0.66430000
C        1.67650000      -1.73730000       0.67890000
O        3.01400000      -1.33730000       0.50570000
C        0.76910000      -0.60590000       1.27570000
C        1.50150000       0.32920000       2.11770000
N        2.05590000       1.08980000       2.78850000
H        1.32330000       1.81750000      -0.19670000
H       -0.17420000       1.82800000      -1.15270000
H       -0.23340000       2.07750000       0.60440000
H       -0.96450000      -0.22010000       0.01960000
H        0.05270000      -2.55200000      -0.54760000
H        1.62930000      -2.45620000      -1.39270000
H        1.69690000      -2.61750000       1.32440000
H        3.02790000      -0.65340000      -0.17570000
H       -0.01290000      -1.06180000       1.89070000
