17
Properties=species:S:1:pos:R:3 gdb_78145=T pbc="F F F"
C       -0.06070000       1.45280000       0.01090000
C        0.05070000      -0.05330000      -0.03860000
C        0.73870000      -0.70490000      -1.21680000
C        1.41170000      -0.69770000       0.14410000
C        1.38280000      -2.11830000       0.63030000
O        1.87120000      -2.58710000       1.62820000
N        0.66150000      -2.83840000      -0.32520000
C        0.35770000      -2.12440000      -1.49100000
N       -0.12520000      -2.54160000      -2.58820000
H        0.81920000       1.93150000      -0.43050000
H       -0.94160000       1.79520000      -0.54150000
H       -0.15150000       1.80420000       1.04380000
H       -0.79540000      -0.58950000       0.38290000
H        1.06550000      -0.09600000      -2.04870000
H        2.26790000      -0.08710000       0.39740000
H        0.48860000      -3.82570000      -0.20950000
H       -0.30760000      -3.54640000      -2.56600000
