19
Properties=species:S:1:pos:R:3 gdb_67827=T pbc="F F F"
C       -0.02270000       1.52350000       0.02700000
C       -0.01090000       0.01480000      -0.04110000
C        0.91430000      -0.67950000      -0.99820000
C        0.40800000      -1.83850000      -1.42220000
C       -0.87610000      -2.16090000      -0.66400000
O       -0.54270000      -3.02610000       0.43460000
C        0.12990000      -2.21420000       1.40340000
C       -0.40060000      -0.79380000       1.21340000
C       -1.26550000      -0.81710000      -0.01550000
H        0.94170000       1.91370000       0.37250000
H       -0.22550000       1.96160000      -0.95680000
H       -0.79150000       1.88340000       0.71780000
H        1.88300000      -0.27130000      -1.26680000
H        0.90280000      -2.56140000      -2.05940000
H       -1.65600000      -2.66090000      -1.24080000
H       -0.11010000      -2.60910000       2.39530000
H        1.21800000      -2.27100000       1.26150000
H       -0.70020000      -0.23110000       2.09120000
H       -2.26800000      -0.41130000      -0.06470000
