15
Properties=species:S:1:pos:R:3 gdb_26595=T pbc="F F F"
C       -0.00540000       1.55580000       0.02670000
C       -0.01430000       0.05340000       0.01890000
C       -1.16290000      -0.67000000      -0.08230000
O       -2.39110000      -0.11960000      -0.18420000
C       -1.16240000      -2.12720000      -0.08920000
O       -2.18110000      -2.78130000      -0.17900000
O        0.05020000      -2.75080000       0.01110000
C        1.19890000      -2.03460000       0.11220000
C        1.21200000      -0.69090000       0.11970000
H        0.59360000       1.94470000      -0.80480000
H       -1.01610000       1.95590000      -0.05750000
H        0.44390000       1.93650000       0.95120000
H       -3.00190000      -0.87560000      -0.23990000
H        2.06420000      -2.67880000       0.18280000
H        2.15890000      -0.17180000       0.20280000
