15
Properties=species:S:1:pos:R:3 gdb_61348=T pbc="F F F"
C       -0.03810000       1.55530000       0.00220000
C       -0.01310000       0.02580000       0.01970000
O        0.58830000      -0.47130000      -1.21590000
C       -0.22610000      -0.62590000      -2.26300000
N       -1.46380000      -0.34840000      -2.26400000
C        0.49850000      -1.15840000      -3.40560000
N        1.01110000      -1.57650000      -4.35320000
C        0.77680000      -0.51610000       1.11660000
C        1.40860000      -0.93430000       2.04780000
H        0.97480000       1.94840000      -0.11090000
H       -0.66470000       1.90560000      -0.82020000
H       -0.45360000       1.92320000       0.94380000
H       -1.03620000      -0.35960000       0.06190000
H       -1.89620000      -0.55800000      -3.16010000
H        1.96690000      -1.31430000       2.86800000
