11
Properties=species:S:1:pos:R:3 gdb_8791=T pbc="F F F"
O        0.00260000       1.41710000       0.00940000
C       -0.00550000       0.01920000       0.00200000
C       -1.44030000      -0.46160000       0.01310000
O       -2.41720000       0.23750000       0.02620000
C       -1.60280000      -1.99370000       0.00660000
O       -0.67210000      -2.75770000      -0.00650000
C       -2.99850000      -2.46380000       0.01760000
N       -4.07590000      -2.88240000       0.02580000
H        0.91750000       1.71340000       0.00130000
H        0.48150000      -0.42200000      -0.88470000
H        0.49840000      -0.43130000       0.87440000
