23
Properties=species:S:1:pos:R:3 gdb_58439=T pbc="F F F"
C        0.08900000       1.40270000      -0.29150000
C        0.08130000      -0.07650000       0.12630000
C        0.67610000      -0.26690000       1.52910000
C       -1.32790000      -0.65220000       0.05980000
O       -2.23350000      -0.02530000       0.94660000
C       -2.00690000      -1.14840000      -1.19500000
C       -1.05260000      -1.90460000      -2.12650000
C       -0.69530000      -2.87580000      -0.95190000
C       -1.66030000      -2.11190000      -0.03860000
H        1.10920000       1.79830000      -0.31260000
H       -0.34550000       1.53930000      -1.28790000
H       -0.47960000       2.01630000       0.41700000
H        0.70610000      -0.62310000      -0.58820000
H        0.04570000       0.22040000       2.27850000
H        0.74190000      -1.32840000       1.78870000
H        1.68170000       0.16140000       1.59240000
H       -2.46330000       0.83230000       0.57380000
H       -2.97910000      -0.75510000      -1.47110000
H       -1.58040000      -2.41970000      -2.93220000
H       -0.23390000      -1.32890000      -2.57030000
H       -1.03130000      -3.89560000      -1.15030000
H        0.35200000      -2.91780000      -0.63610000
H       -2.32610000      -2.55210000       0.69360000
