20
Properties=species:S:1:pos:R:3 gdb_13219=T pbc="F F F"
O        0.13740000       1.41050000      -0.13310000
C        0.09270000       0.01350000       0.05780000
C       -1.34800000      -0.50130000      -0.00170000
O       -1.95950000      -0.02180000      -1.20930000
C       -1.46180000      -2.00870000       0.13090000
C       -1.14770000      -2.66830000       1.50660000
C       -2.34970000      -3.62460000       1.27970000
C       -2.87870000      -2.64540000       0.19650000
H       -0.51330000       1.58940000      -0.82510000
H        0.69340000      -0.51800000      -0.70460000
H        0.54000000      -0.20380000       1.03400000
H       -1.92120000      -0.01670000       0.79880000
H       -1.59730000      -0.53510000      -1.94150000
H       -0.86580000      -2.48840000      -0.65840000
H       -0.15860000      -3.11040000       1.64610000
H       -1.33440000      -1.97120000       2.33040000
H       -2.03180000      -4.57710000       0.84640000
H       -2.99710000      -3.83380000       2.13400000
H       -3.60790000      -1.93850000       0.60390000
H       -3.28920000      -3.07150000      -0.72150000
