14
Properties=species:S:1:pos:R:3 gdb_18634=T pbc="F F F"
O        0.11180000       1.36700000       0.03220000
C       -0.03330000      -0.01370000      -0.01650000
C       -1.35030000      -0.71360000       0.04050000
C       -2.54490000       0.15400000      -0.31660000
O       -2.25650000       0.73440000      -1.60360000
C       -1.23940000       0.05220000      -2.24220000
O       -1.02010000       0.19760000      -3.40700000
C       -0.51980000      -0.78450000      -1.24030000
H       -0.54630000       1.78440000      -0.53700000
H        0.79170000      -0.48370000       0.50720000
H       -1.50390000      -1.57240000       0.68260000
H       -3.46580000      -0.43260000      -0.39530000
H       -2.70640000       0.97390000       0.39010000
H        0.01500000      -1.65400000      -1.59660000
