13
Properties=species:S:1:pos:R:3 gdb_19336=T pbc="F F F"
N        0.09110000      -1.14320000      -0.12320000
C        0.06530000       0.01250000      -0.04400000
C        0.02150000       1.42580000       0.07560000
N        0.20250000       2.34340000      -1.08410000
C        1.14310000       2.41740000       0.03800000
C        0.48210000       3.20050000       1.21860000
N       -0.88130000       3.60420000       0.80470000
C       -0.62850000       2.22700000       1.26170000
H        0.65090000       1.79980000      -1.82290000
H        2.20130000       2.22440000      -0.07600000
H        1.01770000       3.68910000       2.02040000
H       -1.29430000       4.10310000       1.59300000
H       -1.14410000       1.77000000       2.09470000
