15
Properties=species:S:1:pos:R:3 gdb_126485=T pbc="F F F"
C        0.13760000       1.51000000       0.15000000
C       -0.09030000       0.00820000      -0.09550000
C        0.69320000      -0.51020000      -1.25800000
N        0.15140000      -0.82320000      -2.40200000
O        1.17830000      -1.23880000      -3.21110000
N        2.37330000      -1.18850000      -2.57090000
C        2.10820000      -0.74230000      -1.36310000
C        3.09680000      -0.55170000      -0.37100000
C        3.90460000      -0.37830000       0.50290000
H        1.19200000       1.72160000       0.34900000
H       -0.17100000       2.09800000      -0.71890000
H       -0.44440000       1.84350000       1.01360000
H        0.19590000      -0.55680000       0.79880000
H       -1.14900000      -0.19000000      -0.28210000
H        4.63010000      -0.23010000       1.26500000
