21
Properties=species:S:1:pos:R:3 gdb_41648=T pbc="F F F"
C       -0.03470000       1.53570000      -0.22390000
C        1.36930000       2.12570000      -0.01830000
C        2.00880000       1.63420000       1.28060000
C        1.21030000       1.62910000       2.59090000
C        0.35180000       0.35180000       2.59240000
C        1.80000000       0.30610000       3.01420000
C        2.11590000       0.09190000       1.48420000
C        0.64720000      -0.39140000       1.28300000
C       -0.05090000       0.01320000      -0.01590000
H       -0.72390000       1.99980000       0.49180000
H       -0.40920000       1.78630000      -1.22260000
H        2.02040000       1.84130000      -0.85750000
H        1.31990000       3.22180000      -0.02670000
H        2.98520000       2.10220000       1.44510000
H        0.95000000       2.47080000       3.22100000
H       -0.52520000       0.27600000       3.22370000
H        2.27790000      -0.01400000       3.92810000
H        2.94850000      -0.46830000       1.06130000
H        0.58260000      -1.47200000       1.44920000
H       -1.08450000      -0.35490000      -0.02250000
H        0.45730000      -0.48370000      -0.85490000
