16
Properties=species:S:1:pos:R:3 gdb_65902=T pbc="F F F"
C       -0.29230000       1.63330000      -0.15800000
C        0.01040000       0.14410000      -0.11480000
C        0.89440000      -0.47120000      -1.21970000
C        1.81110000      -0.89250000      -0.05460000
O        0.97440000      -0.20160000       0.91150000
C       -1.25870000      -0.66360000       0.15870000
O       -1.82350000      -1.36450000      -0.64060000
C       -1.76690000      -0.54320000       1.54340000
N       -2.20100000      -0.42770000       2.60870000
H        0.63910000       2.18910000      -0.29400000
H       -0.96840000       1.86500000      -0.98780000
H       -0.75660000       1.96330000       0.77630000
H        0.42380000      -1.27050000      -1.79090000
H        1.32370000       0.26620000      -1.89860000
H        1.85580000      -1.96820000       0.14730000
H        2.82580000      -0.48360000      -0.06160000
