18
Properties=species:S:1:pos:R:3 gdb_18349=T pbc="F F F"
C        0.12780000       1.59270000       0.01490000
C        0.04110000       0.06070000      -0.01210000
C        0.73260000      -0.58570000      -1.19700000
C        1.55300000      -1.57930000      -0.85520000
C        1.61000000      -1.78530000       0.63370000
C        2.76660000      -1.05830000       1.35950000
O        1.91740000       0.06970000       1.65610000
C        0.73730000      -0.62500000       1.18470000
H        1.16870000       1.91500000       0.08550000
H       -0.31240000       2.01940000      -0.89190000
H       -0.41250000       2.00240000       0.87440000
H       -1.02300000      -0.22110000      -0.01260000
H        0.55210000      -0.25260000      -2.21440000
H        2.13810000      -2.17400000      -1.54870000
H        1.40730000      -2.80900000       0.95750000
H        3.11270000      -1.55480000       2.27610000
H        3.63260000      -0.77590000       0.74970000
H        0.05710000      -0.84290000       2.01580000
