16
Properties=species:S:1:pos:R:3 gdb_123849=T pbc="F F F"
C       -0.03580000       1.49760000       0.07440000
C        1.37000000       2.13220000      -0.03950000
C        2.18210000       1.40330000      -1.06470000
N        3.16330000       1.89710000      -1.76920000
O        3.64850000       0.82110000      -2.52740000
C        2.92960000      -0.27770000      -2.23770000
C        1.97270000       0.01010000      -1.31600000
C        0.90510000      -0.71010000      -0.64820000
C       -0.02480000      -0.01570000       0.02310000
H       -0.51380000       1.84040000       0.99750000
H       -0.67100000       1.86740000      -0.74470000
H        1.30730000       3.19890000      -0.26750000
H        1.88320000       2.04170000       0.92720000
H        3.20830000      -1.17330000      -2.77140000
H        0.86540000      -1.79270000      -0.70910000
H       -0.84220000      -0.53680000       0.51210000
