17
Properties=species:S:1:pos:R:3 gdb_65889=T pbc="F F F"
O        0.06360000       1.61710000      -0.15970000
C       -0.00790000       0.21550000       0.01970000
C        0.18530000      -0.33450000       1.47920000
C       -1.09000000      -1.19510000       1.28770000
C       -1.47830000      -0.29550000       0.08600000
C        0.81320000      -0.48910000      -0.95620000
C        1.53080000      -1.04390000      -1.75960000
C        2.32510000      -1.67880000      -2.66300000
C        3.03290000      -2.23930000      -3.46520000
H        0.98270000       1.85520000      -0.32460000
H        1.12550000      -0.83870000       1.70910000
H        0.02540000       0.48920000       2.17940000
H       -0.85260000      -2.21480000       0.97570000
H       -1.79090000      -1.23880000       2.12260000
H       -2.11580000       0.54030000       0.38470000
H       -1.88470000      -0.76290000      -0.81170000
H        3.65090000      -2.73570000      -4.17140000
