17
Properties=species:S:1:pos:R:3 gdb_36189=T pbc="F F F"
N       -0.12960000      -1.07340000      -0.39640000
C       -0.07300000       0.05930000      -0.17640000
C        0.01960000       1.49070000       0.12330000
C        1.44410000       1.97780000       0.12280000
C        2.59150000       1.56940000       1.04610000
C        3.36840000       2.75430000       0.40840000
C        3.48940000       2.30510000      -1.05730000
N        2.00050000       2.42730000      -1.20470000
C        1.97550000       3.35250000      -0.03300000
H       -0.55460000       2.04750000      -0.62410000
H       -0.44650000       1.66960000       1.09960000
H        2.33220000       1.76390000       2.09030000
H        3.02030000       0.56690000       0.94770000
H        4.16940000       3.25600000       0.94680000
H        3.95690000       3.04820000      -1.70760000
H        3.90210000       1.31150000      -1.26560000
H        1.52040000       4.33450000      -0.03660000
