19
Properties=species:S:1:pos:R:3 gdb_83605=T pbc="F F F"
C        0.00630000       1.32830000       0.62250000
N        0.02700000       0.13540000      -0.18560000
C       -1.03980000      -0.83340000      -0.41760000
C       -1.34630000      -1.78150000       0.75910000
O       -0.25480000      -2.65580000       0.40310000
C        0.07220000      -1.87300000      -0.77890000
C        0.24340000      -2.69080000      -2.02390000
C        1.06960000      -0.76390000      -0.42030000
N        2.33220000      -0.74770000      -0.35290000
H        0.98530000       1.81290000       0.56410000
H       -0.74130000       2.03350000       0.24460000
H       -0.21090000       1.12400000       1.68120000
H       -1.85110000      -0.50180000      -1.06760000
H       -1.24260000      -1.36170000       1.76660000
H       -2.31100000      -2.29810000       0.67820000
H       -0.62270000      -3.33670000      -2.19140000
H        0.38550000      -2.04290000      -2.89390000
H        1.13400000      -3.31890000      -1.92240000
H        2.69120000       0.13930000       0.00570000
