17
Properties=species:S:1:pos:R:3 gdb_3347=T pbc="F F F"
C        0.02690000       1.58060000      -0.05310000
C        1.58950000       1.40240000       0.05180000
C        1.27720000       0.01690000       0.56940000
C        1.44440000      -0.83300000       1.57620000
C        0.17390000      -1.66630000       1.74260000
C       -0.92260000      -0.79740000       1.03860000
C       -0.11860000       0.01630000       0.00590000
H       -0.37960000       2.05820000       0.84230000
H       -0.35290000       2.08920000      -0.94260000
H        2.05360000       1.40260000      -0.94060000
H        2.14970000       2.07910000       0.70150000
H        2.29210000      -0.90440000       2.24810000
H        0.26380000      -2.65570000       1.27130000
H       -0.06150000      -1.85040000       2.79670000
H       -1.72740000      -1.39890000       0.60590000
H       -1.37390000      -0.12440000       1.77690000
H       -0.19010000      -0.39720000      -1.00820000
