20
Properties=species:S:1:pos:R:3 gdb_22263=T pbc="F F F"
C        0.35180000       1.44860000       0.02670000
C        0.04700000      -0.02710000       0.04010000
N       -0.15580000      -0.69860000       1.10800000
O       -0.07210000       0.10820000       2.25450000
C       -0.04990000      -0.76950000      -1.26730000
C       -1.27820000      -0.31870000      -2.06730000
C        1.25130000      -0.81130000      -2.12180000
O        1.20140000      -2.24530000      -2.19750000
C        0.12600000      -2.30740000      -1.23410000
H        1.15530000       1.67230000       0.73390000
H        0.64170000       1.79060000      -0.96890000
H       -0.51980000       2.02580000       0.35390000
H       -0.21120000      -0.53080000       2.96140000
H       -1.26060000       0.75890000      -2.26150000
H       -1.31040000      -0.83390000      -3.03250000
H       -2.19900000      -0.55030000      -1.52230000
H        1.19810000      -0.33990000      -3.11120000
H        2.15250000      -0.45730000      -1.60240000
H        0.45550000      -2.70450000      -0.26980000
H       -0.72230000      -2.89450000      -1.60420000
