17
Properties=species:S:1:pos:R:3 gdb_61778=T pbc="F F F"
C        0.01870000       1.79060000      -0.08440000
C       -0.04600000       0.26310000       0.02280000
N       -1.41570000      -0.22060000       0.05480000
C       -1.99500000      -0.73490000       1.17500000
O       -1.45720000      -0.82630000       2.25730000
C        0.67090000      -0.45700000      -1.14760000
O        0.02570000      -0.22180000      -2.39110000
C        2.10050000      -0.10560000      -1.20810000
N        3.21270000       0.20250000      -1.26570000
H        1.05480000       2.14100000      -0.10070000
H       -0.48620000       2.14860000      -0.98860000
H       -0.48360000       2.23970000       0.77510000
H        0.41280000      -0.05940000       0.96140000
H       -1.93170000      -0.21050000      -0.81200000
H       -3.03480000      -1.06400000       0.98410000
H        0.59170000      -1.53560000      -0.97840000
H        0.26230000       0.66060000      -2.69860000
