17
Properties=species:S:1:pos:R:3 gdb_133822=T pbc="F F F"
C        0.88470000      -0.10780000       0.98160000
C        2.13500000       0.04710000       0.15590000
C        2.37920000       1.17080000      -0.80640000
C        2.48450000      -0.46640000      -1.18320000
C        3.77640000      -1.18810000      -1.06370000
C        4.26080000      -1.22360000       0.20880000
C        3.56330000      -0.07010000       0.73390000
C        4.18990000       1.23280000       0.64090000
C        3.53580000       1.91930000      -0.34100000
H        0.86370000       0.61040000       1.80860000
H        0.82010000      -1.11530000       1.40460000
H       -0.00440000       0.05830000       0.36480000
H        1.56110000       1.65750000      -1.32730000
H        1.78390000      -0.70910000      -1.97520000
H        5.13830000      -1.72200000       0.59460000
H        5.16750000       1.47690000       1.03810000
H        3.86950000       2.85260000      -0.78330000
