20
Properties=species:S:1:pos:R:3 gdb_108309=T pbc="F F F"
C        0.33500000       1.49650000      -0.15580000
C        0.08600000       0.01980000       0.03760000
O        0.90930000      -0.82100000      -0.83520000
C        1.30390000      -1.67330000       0.27130000
C        0.96940000      -3.11280000      -0.03110000
O        1.60080000      -3.51340000      -1.23450000
C        2.66630000      -1.26060000       0.86950000
N        1.98310000      -0.20890000       1.68360000
C        0.64430000      -0.70530000       1.28410000
H        1.36030000       1.74570000       0.12440000
H        0.16610000       1.77300000      -1.20120000
H       -0.35310000       2.08010000       0.46580000
H       -0.97370000      -0.22620000      -0.12250000
H        1.33500000      -3.77570000       0.76030000
H       -0.12520000      -3.22900000      -0.09080000
H        1.36290000      -2.84390000      -1.88850000
H        3.12610000      -2.06130000       1.46240000
H        3.39870000      -0.86810000       0.15860000
H        2.16120000      -0.28270000       2.67700000
H       -0.04560000      -0.98360000       2.08290000
