23
Properties=species:S:1:pos:R:3 gdb_107670=T pbc="F F F"
C        0.20580000       1.29850000      -0.27770000
O       -0.20820000       0.02900000       0.18560000
C        0.59500000      -0.50880000       1.20520000
C        1.89730000      -1.12840000       0.76550000
C        0.71530000      -2.00810000       1.14510000
C        0.74880000      -2.84710000       2.42260000
C        0.28840000      -2.07300000       3.66830000
C        0.92560000      -0.68090000       3.73280000
C        0.46330000       0.18580000       2.55100000
H        1.25520000       1.28950000      -0.60670000
H       -0.43070000       1.54860000      -1.13030000
H        0.08920000       2.08120000       0.48510000
H        2.14850000      -1.05560000      -0.28690000
H        2.74990000      -1.10230000       1.43780000
H        0.20030000      -2.45200000       0.29950000
H        0.11900000      -3.73300000       2.29060000
H        1.76730000      -3.22270000       2.58680000
H       -0.80350000      -1.95890000       3.64630000
H        0.52590000      -2.64810000       4.57020000
H        0.66030000      -0.17940000       4.66970000
H        2.02000000      -0.77360000       3.73540000
H        1.00320000       1.14060000       2.54900000
H       -0.60050000       0.42440000       2.68190000
