22
Properties=species:S:1:pos:R:3 gdb_120732=T pbc="F F F"
C        0.06060000      -3.30280000       1.14240000
C       -0.06140000      -1.81480000       1.47490000
O        0.80150000      -1.02540000       0.65380000
C       -1.49860000      -1.34140000       1.36690000
C       -2.39730000      -1.31940000       2.55410000
N       -1.95160000      -0.07400000       1.93470000
C       -1.00460000       0.77300000       2.66960000
C       -1.72160000       2.05300000       3.09250000
O       -2.87060000       1.78590000       3.87820000
H        1.10860000      -3.61100000       1.18040000
H       -0.51340000      -3.91350000       1.84620000
H       -0.31970000      -3.50800000       0.13410000
H        0.30460000      -1.64450000       2.49230000
H        0.49870000      -1.10940000      -0.25760000
H       -1.94530000      -1.55620000       0.39290000
H       -3.45300000      -1.56090000       2.45730000
H       -1.95900000      -1.58840000       3.51500000
H       -0.60180000       0.27200000       3.56330000
H       -0.16420000       1.01210000       2.00990000
H       -1.05560000       2.66610000       3.70900000
H       -1.98200000       2.63400000       2.19460000
H       -3.46080000       1.27220000       3.31570000
