19
Properties=species:S:1:pos:R:3 gdb_115026=T pbc="F F F"
C        0.01120000       1.49340000      -0.23170000
C        0.03000000       0.02630000       0.19280000
N       -1.30400000      -0.55150000       0.24380000
C       -2.23240000       0.00220000       1.23560000
C       -3.12370000      -1.16100000       1.56670000
C       -2.64700000      -2.28840000       1.05440000
C       -1.35190000      -2.01300000       0.31820000
C       -1.29830000      -2.62520000      -1.02530000
N       -1.23970000      -3.11960000      -2.06790000
H        1.03240000       1.87840000      -0.30600000
H       -0.47570000       1.60380000      -1.20470000
H       -0.52490000       2.11640000       0.49110000
H        0.61020000      -0.54980000      -0.53670000
H        0.55090000      -0.07390000       1.16600000
H       -1.71260000       0.36340000       2.14460000
H       -2.78670000       0.85920000       0.83040000
H       -4.01870000      -1.06190000       2.16770000
H       -3.06090000      -3.28390000       1.13870000
H       -0.50120000      -2.44040000       0.88610000
