18
Properties=species:S:1:pos:R:3 gdb_22275=T pbc="F F F"
C        0.15260000       1.47060000       0.04110000
C        0.00010000      -0.02770000       0.05340000
N       -0.03280000      -0.72820000       1.12170000
O        0.09810000       0.06810000       2.26920000
C       -0.10780000      -0.75420000      -1.25540000
C        1.21230000      -0.86670000      -2.10530000
C        0.88990000      -2.36220000      -2.27980000
O        1.31440000      -3.21390000      -3.00440000
C       -0.23810000      -2.30600000      -1.24490000
H        1.05420000       1.76860000       0.58500000
H        0.20440000       1.85760000      -0.97840000
H       -0.69030000       1.94140000       0.55800000
H        0.05000000      -0.58420000       2.97600000
H       -0.89630000      -0.28910000      -1.85650000
H        1.28800000      -0.27970000      -3.02360000
H        2.11950000      -0.71520000      -1.51080000
H        0.06220000      -2.73520000      -0.28470000
H       -1.19420000      -2.74240000      -1.54250000
