22
Properties=species:S:1:pos:R:3 gdb_77425=T pbc="F F F"
C       -0.08280000       1.50720000      -0.01720000
N        0.19340000       0.07580000       0.05760000
C        1.31760000      -0.71300000      -0.36710000
C        1.18630000      -1.69290000      -1.49690000
C        2.72990000      -0.21680000       0.11720000
C        2.74100000       1.03980000       0.94220000
C        2.23770000      -0.23660000       1.55640000
C        0.82870000      -0.73260000       1.06230000
C        0.04120000      -1.73860000       1.85080000
H        0.58030000       2.01690000      -0.72430000
H       -1.11230000       1.65260000      -0.36700000
H        0.00490000       1.99400000       0.95990000
H        1.38070000      -1.20750000      -2.46200000
H        1.90440000      -2.51410000      -1.39260000
H        0.17640000      -2.10970000      -1.52640000
H        3.64190000      -0.65660000      -0.26740000
H        3.73340000       1.32240000       1.28550000
H        2.10780000       1.88900000       0.73730000
H        2.72690000      -0.69330000       2.40790000
H       -0.39980000      -1.27860000       2.74440000
H       -0.77180000      -2.14740000       1.24560000
H        0.67960000      -2.56310000       2.18780000
