18
Properties=species:S:1:pos:R:3 gdb_81837=T pbc="F F F"
C       -0.14740000       1.46710000       0.23230000
C        0.11850000       0.00530000       0.05040000
N       -0.68080000      -1.04760000       0.71120000
C        0.78630000      -1.00120000       0.92640000
C        1.43040000      -1.70600000      -0.27610000
O        1.24000000      -3.06840000      -0.46620000
C        0.69480000      -0.67260000      -1.22980000
C       -0.33850000      -1.18440000      -2.19020000
O       -0.85720000      -2.27520000      -2.12600000
H        0.69560000       2.06860000      -0.12390000
H       -1.04130000       1.78540000      -0.31640000
H       -0.30510000       1.70280000       1.29050000
H       -1.12180000      -0.62870000       1.52920000
H        1.19240000      -0.88710000       1.92500000
H        2.50840000      -1.51740000      -0.29420000
H        0.31420000      -3.18580000      -0.72730000
H        1.39140000      -0.00900000      -1.75130000
H       -0.64410000      -0.46910000      -2.98700000
