18
Properties=species:S:1:pos:R:3 gdb_81823=T pbc="F F F"
C       -0.13750000       1.58800000      -0.08760000
C        0.03300000       0.07560000      -0.06780000
C        0.68590000      -0.62480000      -1.26710000
C        2.14760000      -0.23730000      -1.38770000
C        1.75900000      -1.24260000      -0.36320000
O        2.35980000      -2.47970000      -0.34910000
C        1.14000000      -0.56420000       0.87820000
C        1.99120000       0.32580000       1.65350000
N        2.66610000       1.05540000       2.24530000
H        0.79860000       2.10510000      -0.31480000
H       -0.87250000       1.87230000      -0.84770000
H       -0.49170000       1.95720000       0.87990000
H       -0.92440000      -0.39580000       0.17200000
H        0.14930000      -1.06300000      -2.09970000
H        2.65090000      -0.67670000      -2.24240000
H        2.50710000       0.75030000      -1.11250000
H        1.72840000      -3.13080000      -0.02210000
H        0.68720000      -1.29750000       1.55210000
