16
Properties=species:S:1:pos:R:3 gdb_128637=T pbc="F F F"
C       -0.03120000       1.38420000       0.09310000
O       -0.04530000      -0.04710000       0.06420000
C       -1.25380000      -0.60270000       0.00300000
N       -2.42520000       0.00920000      -0.03340000
C       -3.28000000      -1.05370000      -0.09000000
O       -4.60940000      -0.88950000      -0.14190000
N       -2.73670000      -2.25040000      -0.09120000
N       -1.39130000      -1.93800000      -0.02920000
C       -0.38550000      -2.97190000      -0.00860000
H        1.02040000       1.66700000       0.14120000
H       -0.49610000       1.79200000      -0.80850000
H       -0.56790000       1.75670000       0.96980000
H       -4.76920000       0.06130000      -0.12930000
H       -0.45050000      -3.58160000      -0.91430000
H        0.59480000      -2.49710000       0.04210000
H       -0.52460000      -3.61830000       0.86260000
