20
Properties=species:S:1:pos:R:3 gdb_89621=T pbc="F F F"
C       -0.21870000       1.44130000      -0.02740000
N        0.27200000       0.08430000      -0.18470000
C        1.58740000      -0.13900000      -0.84540000
C        2.04580000      -1.00290000       0.33650000
C        1.97070000      -0.17610000       1.60730000
C        0.69510000      -0.65100000       1.00150000
C        2.67090000      -2.34800000       0.33410000
C        2.99330000      -2.95780000      -1.01820000
O        2.89890000      -2.93830000       1.37100000
H        0.48410000       2.12090000       0.48600000
H       -0.43960000       1.86360000      -1.01310000
H       -1.15130000       1.42290000       0.54590000
H        1.47840000      -0.66710000      -1.79810000
H        2.18530000       0.76850000      -1.00980000
H        2.29690000      -0.71900000       2.48750000
H        2.25360000       0.87210000       1.56500000
H        0.01420000      -1.32340000       1.51330000
H        3.63840000      -2.29110000      -1.60160000
H        3.48790000      -3.91860000      -0.87340000
H        2.07590000      -3.10290000      -1.59990000
