19
Properties=species:S:1:pos:R:3 gdb_100511=T pbc="F F F"
C       -0.01130000       1.56830000       0.03850000
C       -0.07580000       0.05700000      -0.19050000
C        0.83330000      -0.37640000      -1.36630000
O        2.16950000       0.00600000      -1.15160000
C        0.76100000      -1.88170000      -1.55960000
O        1.70800000      -2.59210000      -1.29490000
C       -0.54050000      -2.50050000      -2.11450000
C       -0.58680000      -4.00570000      -2.17060000
O       -1.43210000      -1.77480000      -2.48890000
H        1.01910000       1.88480000       0.21570000
H       -0.38960000       2.11350000      -0.83310000
H       -0.61710000       1.85540000       0.90310000
H        0.25500000      -0.47330000       0.71150000
H       -1.10310000      -0.25400000      -0.40310000
H        0.45990000       0.10450000      -2.28130000
H        2.65350000      -0.81010000      -0.95520000
H       -0.47160000      -4.42090000      -1.16360000
H       -1.53210000      -4.32820000      -2.60690000
H        0.25700000      -4.38600000      -2.75440000
