18
Properties=species:S:1:pos:R:3 gdb_41634=T pbc="F F F"
C        0.23360000       1.46590000      -0.46170000
O        1.57990000       1.43320000       0.06040000
C        1.41980000       0.09470000       0.55890000
C       -0.02810000       0.00860000      -0.01700000
N       -0.06830000      -1.01020000      -1.06210000
C        1.27240000      -1.53670000      -1.27410000
C        2.21750000      -0.80530000      -2.26230000
O        3.13300000      -0.46230000      -1.19840000
C        2.24460000      -0.97620000      -0.19660000
H       -0.37570000       2.22570000       0.04380000
H        0.20330000       1.63360000      -1.54390000
H        1.55090000       0.04480000       1.64490000
H       -0.85620000      -0.11310000       0.68310000
H       -0.70970000      -1.75130000      -0.81670000
H        1.25150000      -2.61880000      -1.41220000
H        2.70000000      -1.42890000      -3.02390000
H        1.77820000       0.07850000      -2.73850000
H        2.74810000      -1.67080000       0.48360000
