19
Properties=species:S:1:pos:R:3 gdb_119024=T pbc="F F F"
C       -3.39300000       0.21820000       1.52810000
O       -2.76460000      -0.98160000       1.13970000
C       -1.98820000      -0.84150000      -0.03120000
C       -1.26590000      -2.14970000      -0.27000000
C       -0.30050000      -2.58760000       0.82710000
C        0.78190000      -1.63500000       1.05250000
C        1.66610000      -0.84170000       1.23390000
C       -1.87840000      -3.16220000      -1.13810000
O       -0.81160000      -2.33070000      -1.61030000
H       -3.95830000       0.01050000       2.43960000
H       -2.65970000       1.01280000       1.73520000
H       -4.08670000       0.58360000       0.75470000
H       -2.61510000      -0.60610000      -0.90530000
H       -1.25190000      -0.03010000       0.08370000
H       -0.87640000      -2.71580000       1.75130000
H        0.11580000      -3.56520000       0.56090000
H        2.45560000      -0.15000000       1.39390000
H       -1.62480000      -4.21280000      -1.00450000
H       -2.85400000      -2.97220000      -1.58230000
