13
Properties=species:S:1:pos:R:3 gdb_1709=T pbc="F F F"
O       -0.04260000       1.44590000      -0.05650000
C        0.01090000       0.04100000      -0.00010000
C        0.17900000      -0.56680000       1.43100000
N       -1.28630000      -0.75030000       1.50490000
C       -1.42920000      -0.54010000       0.04690000
C        0.91000000      -0.49710000      -1.02720000
N        1.64160000      -0.90840000      -1.82240000
H        0.84910000       1.79470000       0.05840000
H        0.77210000      -1.48960000       1.42850000
H        0.58840000       0.12870000       2.17170000
H       -1.58380000      -1.66000000       1.83540000
H       -2.19840000       0.18360000      -0.23740000
H       -1.53580000      -1.45030000      -0.55450000
