16
Properties=species:S:1:pos:R:3 gdb_133684=T pbc="F F F"
C       -0.04320000       1.57600000       0.19680000
C        0.03480000       0.03530000       0.18070000
C       -1.38450000      -0.57180000       0.11660000
C       -1.44400000      -2.05710000       0.41830000
F       -0.87780000      -2.33870000       1.60650000
F       -2.72050000      -2.47320000       0.47740000
F       -0.82380000      -2.80080000      -0.50470000
C        0.88770000      -0.42190000      -0.91570000
C        1.59690000      -0.75040000      -1.82830000
H        0.95840000       2.00780000       0.25610000
H       -0.51910000       1.94950000      -0.71480000
H       -0.62310000       1.92120000       1.05830000
H        0.48490000      -0.29250000       1.12610000
H       -2.02040000      -0.07960000       0.85850000
H       -1.83100000      -0.41090000      -0.86840000
H        2.22230000      -1.06540000      -2.62670000
