16
Properties=species:S:1:pos:R:3 gdb_22649=T pbc="F F F"
O       -0.21550000       1.29360000       0.28000000
N       -0.03110000      -0.10150000       0.25110000
C       -1.12330000      -0.68750000      -0.02230000
C       -2.48410000      -0.07300000      -0.25950000
O       -3.33910000      -1.16730000      -0.57740000
C       -2.79630000      -2.34790000       0.02330000
C       -1.26360000      -2.18500000      -0.12640000
C       -3.20920000      -2.49090000       1.42370000
C       -3.54230000      -2.59830000       2.57350000
H        0.66370000       1.61280000       0.50870000
H       -2.82150000       0.46260000       0.63970000
H       -2.49060000       0.63170000      -1.09610000
H       -3.17780000      -3.19220000      -0.55760000
H       -0.96120000      -2.52910000      -1.12170000
H       -0.68450000      -2.72450000       0.62280000
H       -3.84420000      -2.69740000       3.58720000
