19
Properties=species:S:1:pos:R:3 gdb_56598=T pbc="F F F"
N       -0.20670000       1.46250000      -0.07760000
C        0.04290000       0.02510000       0.00040000
C        0.71180000      -0.52330000      -1.20150000
N        1.20360000      -0.92380000      -2.16820000
C        0.87010000      -0.28940000       1.26580000
O        2.06510000       0.47070000       1.13910000
C        0.11550000       0.04460000       2.53010000
C       -0.72970000      -1.00530000       3.20320000
C        0.56820000      -0.57110000       3.83510000
H        0.69010000       1.93900000      -0.10170000
H       -0.69860000       1.68960000      -0.93550000
H       -0.91730000      -0.49370000       0.10060000
H        1.10020000      -1.36700000       1.25870000
H        2.48380000       0.50160000       2.00520000
H       -0.24910000       1.06530000       2.56340000
H       -1.66000000      -0.69180000       3.66240000
H       -0.76460000      -1.99560000       2.76030000
H        1.39470000      -1.27530000       3.81120000
H        0.53100000       0.03950000       4.73000000
