15
Properties=species:S:1:pos:R:3 gdb_123614=T pbc="F F F"
C        0.06080000       1.48240000      -0.02030000
C        1.31990000       0.68560000       0.03950000
N       -0.02500000       0.01800000      -0.02910000
C       -0.18620000      -0.60640000      -1.37340000
C        1.10410000      -0.26480000      -2.05700000
C        1.96150000       0.43080000      -1.27120000
C        3.08150000       0.62470000      -2.11530000
N        2.89130000       0.09180000      -3.30510000
O        1.60060000      -0.48060000      -3.27100000
H       -0.33850000       1.94500000       0.87850000
H       -0.13380000       2.02650000      -0.94280000
H        1.86810000       0.57630000       0.96990000
H       -0.32680000      -1.68700000      -1.25540000
H       -1.07210000      -0.21000000      -1.88090000
H        4.02200000       1.12320000      -1.92680000
