16
Properties=species:S:1:pos:R:3 gdb_19456=T pbc="F F F"
C       -0.10480000      -1.30590000      -0.13340000
C       -0.06000000      -0.10560000      -0.06420000
C        0.00270000       1.33580000       0.02730000
C       -0.04160000       2.08390000       1.39730000
C        1.05980000       1.40950000       2.23690000
C        2.18030000       1.42990000       1.14730000
C        1.35910000       2.10950000       0.03520000
O        0.67810000       3.17900000       0.75650000
H       -0.15000000      -2.36490000      -0.19950000
H       -0.68390000       1.82100000      -0.66950000
H       -0.97810000       2.37730000       1.87030000
H        1.30730000       2.01140000       3.11310000
H        0.78780000       0.40210000       2.55910000
H        3.03790000       2.04290000       1.43020000
H        2.52870000       0.43380000       0.86610000
H        1.85230000       2.42900000      -0.88210000
