15
Properties=species:S:1:pos:R:3 gdb_67435=T pbc="F F F"
O       -0.22800000       1.40310000      -0.00000000
C       -0.01720000       0.05720000       0.01200000
C        0.06790000      -1.02810000      -0.98580000
O        1.19100000      -1.67170000      -0.42870000
C        0.91370000      -0.96680000       0.81870000
C       -0.36000000      -1.66550000       1.35170000
C       -1.06540000      -1.04700000       0.15300000
C       -2.48280000      -1.01070000      -0.20300000
O       -3.34980000      -1.60780000       0.39320000
H        0.49560000       1.82780000      -0.47700000
H       -0.15820000      -1.12570000      -2.03920000
H        1.80020000      -0.77350000       1.41780000
H       -0.30790000      -2.75350000       1.43210000
H       -0.71420000      -1.22280000       2.28510000
H       -2.72260000      -0.38060000      -1.09000000
