16
Properties=species:S:1:pos:R:3 gdb_5931=T pbc="F F F"
C       -0.08650000       1.64660000       0.01700000
C       -0.05290000       0.11650000       0.01670000
C        0.82210000      -0.46200000       1.13850000
O       -1.38340000      -0.46180000       0.04050000
C       -2.20550000      -0.22420000       1.07940000
O       -3.30560000      -0.68700000       1.13710000
C        0.51100000      -0.38560000      -1.32090000
O        1.52710000       0.03610000      -1.80290000
H        0.90060000       2.01680000      -0.26960000
H       -0.81790000       2.01350000      -0.70820000
H       -0.33670000       2.04620000       1.00310000
H        0.48740000      -0.11510000       2.12000000
H        0.79260000      -1.55520000       1.12770000
H        1.85550000      -0.13800000       0.99110000
H       -1.77120000       0.42910000       1.85550000
H       -0.09360000      -1.18820000      -1.79240000
