17
Properties=species:S:1:pos:R:3 gdb_28940=T pbc="F F F"
C       -0.05970000       1.47460000       0.02430000
C       -0.00540000      -0.01530000      -0.03400000
N        0.00110000      -0.73920000      -1.13300000
C        0.04690000      -2.05100000      -0.71940000
C        0.06900000      -2.12320000       0.64440000
N        0.04380000      -0.81270000       1.08340000
C        0.00610000      -0.37770000       2.47210000
C       -1.34100000      -0.07970000       2.95880000
C       -2.44540000       0.17420000       3.35620000
H        0.83420000       1.90460000       0.49310000
H       -0.12330000       1.85300000      -0.99650000
H       -0.93050000       1.83080000       0.58600000
H        0.06630000      -2.86450000      -1.42850000
H        0.10010000      -2.94830000       1.33700000
H        0.46040000      -1.16390000       3.08370000
H        0.64220000       0.50750000       2.58150000
H       -3.42420000       0.39250000       3.70650000
