21
Properties=species:S:1:pos:R:3 gdb_112545=T pbc="F F F"
C       -1.13740000       2.25810000      -1.68700000
C       -0.69070000       1.10460000      -0.78420000
C       -1.68640000      -0.04800000      -0.78700000
O       -1.82690000      -0.70660000      -2.07100000
C       -1.46090000      -2.02830000      -1.56350000
C       -2.63810000      -2.99590000      -1.62590000
C       -0.20840000      -2.57130000      -2.23960000
C       -1.23940000      -1.38340000      -0.18210000
O       -0.85440000      -1.75970000       0.88400000
H       -0.39570000       3.06220000      -1.69160000
H       -1.27160000       1.90960000      -2.71480000
H       -2.08960000       2.68010000      -1.34740000
H        0.28850000       0.73250000      -1.10720000
H       -0.57590000       1.44410000       0.25250000
H       -2.66280000       0.29070000      -0.40770000
H       -2.89150000      -3.20440000      -2.67030000
H       -2.38420000      -3.93930000      -1.13330000
H       -3.52090000      -2.57500000      -1.13710000
H        0.61080000      -1.84940000      -2.19120000
H        0.11360000      -3.49650000      -1.75240000
H       -0.41540000      -2.78600000      -3.29290000
