25
Properties=species:S:1:pos:R:3 gdb_100752=T pbc="F F F"
C        0.01430000       1.51130000       0.60240000
C       -0.00790000       0.00750000       0.31960000
O        0.52780000      -0.70760000       1.43510000
C       -1.40580000      -0.52910000      -0.07280000
C       -1.98870000       0.22210000      -1.28240000
C       -1.40060000      -2.07120000      -0.25760000
C       -2.79890000      -2.68400000      -0.10390000
C       -0.75560000      -2.52570000      -1.57710000
O       -0.57620000      -3.93520000      -1.63680000
H        1.00140000       1.79740000       0.97530000
H       -0.19930000       2.10330000      -0.29120000
H       -0.73000000       1.77580000       1.36510000
H        0.69730000      -0.20420000      -0.49380000
H       -0.01650000      -0.49670000       2.20250000
H       -2.06060000      -0.32440000       0.78990000
H       -1.29590000       0.21890000      -2.13130000
H       -2.92400000      -0.23460000      -1.61840000
H       -2.20820000       1.26510000      -1.04060000
H       -0.76940000      -2.46600000       0.54890000
H       -2.75350000      -3.76420000      -0.26370000
H       -3.20730000      -2.49860000       0.89520000
H       -3.50580000      -2.27400000      -0.83440000
H       -1.40290000      -2.28340000      -2.42690000
H        0.20130000      -2.00700000      -1.74030000
H        0.01970000      -4.18010000      -0.92120000
