17
Properties=species:S:1:pos:R:3 gdb_33981=T pbc="F F F"
N       -0.00470000      -1.18590000      -0.07800000
C       -0.00540000      -0.02780000      -0.04130000
C       -0.01750000       1.39110000       0.03180000
C        0.27910000       2.30700000      -1.15120000
C        1.12490000       2.43030000       0.06510000
N        0.43110000       3.24520000       1.07930000
C       -0.64260000       2.21650000       1.14810000
C       -2.08640000       2.48810000       1.41790000
C       -1.24620000       1.69330000       2.40690000
H        0.73700000       1.80680000      -1.99760000
H       -0.43050000       3.09270000      -1.39220000
H        2.19510000       2.26900000       0.08040000
H        0.95900000       3.23970000       1.94800000
H       -2.35350000       3.50360000       1.68860000
H       -2.83210000       1.95820000       0.83500000
H       -1.41300000       0.62370000       2.48510000
H       -0.97180000       2.17540000       3.34020000
