17
Properties=species:S:1:pos:R:3 gdb_15397=T pbc="F F F"
O        0.22900000       1.34030000       0.04650000
C        0.04230000      -0.05720000       0.20110000
C       -1.29110000      -0.54280000      -0.37530000
C       -1.45230000      -2.03760000      -0.24350000
N       -1.84600000      -2.54350000       1.07680000
C       -2.78530000      -2.69920000      -0.06150000
C       -4.01980000      -1.96470000      -0.01700000
C       -5.06380000      -1.36820000      -0.01310000
H       -0.45250000       1.78400000       0.56150000
H        0.87760000      -0.52560000      -0.33260000
H        0.11620000      -0.36270000       1.25570000
H       -2.11850000      -0.05030000       0.14800000
H       -1.35410000      -0.25310000      -1.43080000
H       -0.72640000      -2.62840000      -0.80270000
H       -1.40370000      -3.43810000       1.27090000
H       -2.87710000      -3.69530000      -0.49010000
H       -5.98470000      -0.83980000       0.00110000
