23
Properties=species:S:1:pos:R:3 gdb_121370=T pbc="F F F"
C        0.38480000       1.45300000      -0.65190000
O        0.75570000       0.10120000      -0.53570000
C       -0.23240000      -0.78340000      -1.01640000
C        0.25700000      -2.22080000      -0.83460000
O       -0.88790000      -3.07420000      -0.95260000
C       -0.72390000      -3.98960000      -2.03440000
C        0.37330000      -3.39960000      -2.91700000
C        1.28660000      -2.73650000      -1.87200000
C        2.28110000      -1.71880000      -2.42900000
H        0.21770000       1.74380000      -1.70150000
H       -0.53500000       1.67310000      -0.08710000
H        1.20130000       2.05500000      -0.24530000
H       -1.17060000      -0.67010000      -0.45050000
H       -0.46490000      -0.57730000      -2.07540000
H        0.65890000      -2.30050000       0.18380000
H       -0.42760000      -4.97820000      -1.65000000
H       -1.68870000      -4.10050000      -2.54000000
H        0.88810000      -4.15200000      -3.52050000
H       -0.03980000      -2.64630000      -3.59860000
H        1.85580000      -3.53500000      -1.37810000
H        1.77590000      -0.91830000      -2.97820000
H        2.86480000      -1.25160000      -1.63240000
H        2.97370000      -2.21000000      -3.12060000
