22
Properties=species:S:1:pos:R:3 gdb_113825=T pbc="F F F"
C       -1.87190000      -0.09360000       3.04170000
C       -1.39770000      -1.49590000       2.63930000
C       -2.39980000      -2.18540000       1.74360000
O       -2.46900000      -1.76220000       0.37750000
C       -2.07970000      -3.11940000       0.64820000
C       -0.69270000      -3.51860000       0.26850000
C       -0.32960000      -4.96840000       0.21990000
N       -0.38630000      -4.18490000      -1.00220000
C       -1.45020000      -4.47380000      -1.95430000
H       -1.14220000       0.39730000       3.69200000
H       -2.01530000       0.53170000       2.15550000
H       -2.82510000      -0.13640000       3.57990000
H       -0.42970000      -1.42590000       2.13580000
H       -1.24990000      -2.11350000       3.53480000
H       -3.38440000      -2.31060000       2.20430000
H       -2.85170000      -3.84810000       0.39890000
H        0.07330000      -2.80410000       0.55650000
H        0.65340000      -5.30370000       0.54060000
H       -1.13350000      -5.68200000       0.40550000
H       -2.36830000      -4.88800000      -1.50980000
H       -1.71180000      -3.55800000      -2.49260000
H       -1.07440000      -5.20260000      -2.67940000
