16
Properties=species:S:1:pos:R:3 gdb_131772=T pbc="F F F"
O        0.13450000       1.38690000       0.07600000
C        0.05520000       0.04040000      -0.33350000
C       -1.33890000      -0.52270000      -0.09630000
C       -1.52570000      -2.09320000      -0.10360000
C       -1.79600000      -1.95330000       1.39520000
C       -1.98830000      -2.22520000       2.73330000
N       -1.94960000      -1.02230000       3.38980000
N       -1.73790000      -0.02840000       2.55290000
N       -1.66620000      -0.62160000       1.35230000
H       -0.02470000       1.41950000       1.02800000
H        0.27870000       0.02000000      -1.40550000
H        0.79560000      -0.59430000       0.17860000
H       -2.09030000       0.04430000      -0.65060000
H       -2.36120000      -2.45060000      -0.70760000
H       -0.62270000      -2.65030000      -0.36280000
H       -2.14980000      -3.14500000       3.26890000
