15
Properties=species:S:1:pos:R:3 gdb_127575=T pbc="F F F"
C       -0.04170000       1.42130000      -0.02010000
N       -0.00800000      -0.02360000       0.01760000
N        0.02770000      -0.74430000      -1.14690000
C        0.03720000      -2.00480000      -0.76430000
C        0.02380000      -2.13250000       0.65070000
C        0.04790000      -3.28210000       1.46390000
N        0.07260000      -4.20330000       2.16910000
C       -0.00240000      -0.81270000       1.11260000
N       -0.09550000      -0.31640000       2.39660000
H        0.93880000       1.85560000       0.20860000
H       -0.33080000       1.71520000      -1.02840000
H       -0.77790000       1.79520000       0.69730000
H        0.05630000      -2.79910000      -1.49500000
H        0.01420000      -1.03170000       3.10310000
H        0.48340000       0.48830000       2.59550000
