17
Properties=species:S:1:pos:R:3 gdb_36475=T pbc="F F F"
N        0.11570000      -1.18630000      -0.13220000
C        0.03460000      -0.03880000      -0.02400000
C       -0.03140000       1.41520000       0.10950000
C        1.36080000       2.04820000       0.02520000
C        2.13970000       2.00140000      -1.31500000
C        2.61580000       3.45430000      -1.05820000
C        1.47870000       3.61720000       0.00850000
C        0.29640000       4.29590000      -0.49910000
N       -0.65250000       4.81420000      -0.91060000
H       -0.68110000       1.81610000      -0.67650000
H       -0.50810000       1.65980000       1.06610000
H        1.98250000       1.67020000       0.84100000
H        2.90060000       1.22750000      -1.42090000
H        1.46070000       1.94540000      -2.17070000
H        3.59580000       3.49860000      -0.57890000
H        2.59610000       4.15020000      -1.89690000
H        1.76780000       4.07700000       0.95650000
