16
Properties=species:S:1:pos:R:3 gdb_29531=T pbc="F F F"
N        0.03150000       1.44590000      -0.07540000
C        0.03100000       0.04550000      -0.03730000
C       -1.02180000      -0.82670000      -0.18190000
O       -0.60730000      -2.14450000      -0.17080000
C        0.73460000      -2.08690000      -0.02140000
C        1.16620000      -0.81600000       0.06810000
O        2.50510000      -0.67530000       0.29670000
C        3.03090000      -2.03360000       0.16850000
C        1.83930000      -3.05900000       0.21170000
H        0.76490000       1.84440000       0.49660000
H       -0.85770000       1.84970000       0.18830000
H       -2.07660000      -0.67080000      -0.33250000
H        3.54810000      -2.09510000      -0.79480000
H        3.75480000      -2.18180000       0.97180000
H        1.76660000      -3.57230000       1.18020000
H        1.96120000      -3.82740000      -0.55860000
