17
Properties=species:S:1:pos:R:3 gdb_47524=T pbc="F F F"
O       -0.01320000      -0.03490000      -0.27570000
C        0.00780000       1.14880000      -0.04050000
C       -1.28070000       1.96190000       0.16730000
O       -1.29190000       3.19720000      -0.52990000
C       -0.54900000       4.25690000       0.04810000
C        0.94330000       3.96300000       0.14350000
C        1.48830000       3.04410000      -0.97140000
C        1.31190000       1.93180000       0.09350000
O        1.18580000       2.92800000       1.13660000
H       -2.11250000       1.36920000      -0.21930000
H       -1.42360000       2.11270000       1.24870000
H       -0.72360000       5.12330000      -0.59920000
H       -0.92300000       4.49330000       1.05700000
H        1.50140000       4.87730000       0.37270000
H        0.90640000       2.96820000      -1.88940000
H        2.53920000       3.22550000      -1.19770000
H        2.14110000       1.24010000       0.25830000
