17
Properties=species:S:1:pos:R:3 gdb_133065=T pbc="F F F"
C        0.02250000       1.56110000      -0.04250000
C       -0.00410000       0.02450000       0.03880000
C       -1.40580000      -0.53670000       0.02190000
C       -2.07780000      -0.85290000       1.20710000
N       -3.32570000      -1.32140000       1.26650000
C       -3.97920000      -1.50420000       0.11960000
C       -3.39270000      -1.22340000      -1.10830000
F       -4.08430000      -1.43100000      -2.23220000
C       -2.09890000      -0.73610000      -1.17310000
H        1.05160000       1.93280000      -0.02900000
H       -0.45440000       1.91540000      -0.96190000
H       -0.51250000       2.00660000       0.80190000
H        0.56670000      -0.39300000      -0.79870000
H        0.50230000      -0.29910000       0.95480000
H       -1.57170000      -0.72220000       2.16160000
H       -4.99490000      -1.88750000       0.16280000
H       -1.64920000      -0.52440000      -2.13780000
