25
Properties=species:S:1:pos:R:3 gdb_120633=T pbc="F F F"
C        0.04310000       1.52280000       0.23210000
C       -0.07550000      -0.00140000       0.31300000
C       -1.36410000      -0.53580000      -0.32600000
C       -1.47750000      -2.04450000      -0.25980000
C       -1.97480000      -2.72730000       1.00620000
C       -2.80840000      -2.74250000      -0.25570000
O       -3.92680000      -1.88820000      -0.30050000
C       -2.98770000      -4.03550000      -1.03030000
C       -4.12020000      -4.91490000      -0.48710000
H        0.96960000       1.87830000       0.69420000
H        0.03720000       1.86600000      -0.80860000
H       -0.79350000       2.01230000       0.74330000
H        0.79240000      -0.46300000      -0.17670000
H       -0.03490000      -0.32100000       1.36220000
H       -2.23720000      -0.08850000       0.16000000
H       -1.40690000      -0.21530000      -1.37620000
H       -0.68880000      -2.57440000      -0.79090000
H       -1.49860000      -3.64450000       1.33750000
H       -2.31510000      -2.07810000       1.80720000
H       -4.59060000      -2.23890000       0.30210000
H       -3.18680000      -3.78690000      -2.08030000
H       -2.04440000      -4.59370000      -1.01010000
H       -4.21470000      -5.83910000      -1.06470000
H       -3.94320000      -5.18910000       0.55890000
H       -5.08320000      -4.39610000      -0.54400000
