14
Properties=species:S:1:pos:R:3 gdb_48655=T pbc="F F F"
O       -0.09840000      -0.01650000       0.02820000
C       -0.03560000       1.18810000      -0.01800000
C        1.23600000       1.92810000       0.02200000
C        1.36160000       3.40010000       0.36610000
C        1.79770000       2.97180000      -0.99230000
O        3.08180000       2.37690000      -0.98180000
C        2.62180000       1.30860000      -0.09540000
C        1.25750000       3.46330000      -2.22050000
N        0.80910000       3.87190000      -3.20540000
H       -0.94510000       1.82220000      -0.09830000
H        0.41770000       3.93520000       0.40800000
H        2.11960000       3.72140000       1.07410000
H        3.22240000       1.24580000       0.81610000
H        2.61230000       0.35140000      -0.62110000
