20
Properties=species:S:1:pos:R:3 gdb_86988=T pbc="F F F"
C        0.05570000       1.46610000       0.14640000
N       -0.04480000       0.02460000       0.16960000
C       -1.33290000      -0.58870000       0.54970000
C       -0.54800000      -1.69650000       1.27300000
C        0.65900000      -0.71620000       1.23370000
O       -1.08780000      -2.05330000       2.51580000
C       -0.31830000      -3.03810000       3.18460000
C       -0.95450000      -3.39480000       4.44530000
C       -1.45680000      -3.70730000       5.49010000
H        1.08730000       1.76260000      -0.07180000
H       -0.58320000       1.86980000      -0.64650000
H       -0.24260000       1.93920000       1.10160000
H       -1.90640000       0.00180000       1.28250000
H       -1.98400000      -0.86540000      -0.28540000
H       -0.38180000      -2.58490000       0.64780000
H        1.64950000      -1.09290000       0.95670000
H        0.72830000      -0.16300000       2.18590000
H       -0.21430000      -3.93670000       2.55270000
H        0.70200000      -2.66800000       3.37830000
H       -1.90720000      -3.97960000       6.41250000
