19
Properties=species:S:1:pos:R:3 gdb_88174=T pbc="F F F"
C        0.06240000       1.62480000      -0.14060000
C        0.02110000       0.11380000       0.02520000
O        0.72740000      -0.48710000      -1.07320000
C        1.53110000      -1.50760000      -0.53960000
O        1.91760000      -1.08010000       0.74830000
C        0.76580000      -0.44680000       1.24750000
C        0.86460000       0.19330000       2.59540000
C        0.04450000      -1.07410000       2.40540000
O       -1.35010000      -0.99580000       2.38940000
H        1.09030000       1.99220000      -0.07430000
H       -0.34470000       1.90110000      -1.11730000
H       -0.54100000       2.11490000       0.62970000
H       -1.01730000      -0.23920000       0.03440000
H        0.97110000      -2.45840000      -0.47530000
H        2.42410000      -1.63230000      -1.15810000
H        1.81170000       0.11140000       3.11750000
H        0.32460000       1.12140000       2.75240000
H        0.46590000      -1.99920000       2.79760000
H       -1.65280000      -0.80400000       3.28330000
