16
Properties=species:S:1:pos:R:3 gdb_28551=T pbc="F F F"
C       -0.04790000       1.49860000       0.07280000
C       -0.01550000       0.01300000      -0.05080000
C       -0.04280000      -0.79520000      -1.14160000
C        0.01050000      -2.17710000      -0.72980000
C        0.07030000      -2.18600000       0.62710000
O        0.13420000      -3.20240000       1.49130000
N        0.05600000      -0.84500000       1.07880000
C        0.10450000      -0.47810000       2.39480000
O        0.16540000      -1.26840000       3.32190000
H        0.84860000       1.90750000       0.55670000
H       -0.10310000       1.93170000      -0.92860000
H       -0.91790000       1.86250000       0.63460000
H       -0.09650000      -0.44670000      -2.16250000
H        0.00500000      -3.04920000      -1.36230000
H        0.16390000      -2.81890000       2.39140000
H        0.08350000       0.61070000       2.54900000
