19
Properties=species:S:1:pos:R:3 gdb_94576=T pbc="F F F"
O        0.23840000       1.32210000      -0.28970000
C        0.03990000      -0.00090000       0.10730000
C       -0.33770000      -0.30340000       1.57670000
O       -1.50340000      -1.05360000       1.16450000
C       -1.31650000      -0.70100000      -0.22410000
C       -2.41560000       0.20450000      -0.73970000
C       -3.85720000      -0.16310000      -0.31810000
C       -3.80940000       1.14160000       0.50050000
O       -2.48240000       1.45030000       0.01050000
H       -0.55390000       1.81750000      -0.03430000
H        0.90730000      -0.56630000      -0.24050000
H        0.35980000      -0.91840000       2.15650000
H       -0.60520000       0.59230000       2.15080000
H       -1.25580000      -1.59560000      -0.86000000
H       -2.26380000       0.40140000      -1.80830000
H       -4.58400000      -0.17670000      -1.13060000
H       -3.93670000      -1.07490000       0.27300000
H       -4.52910000       1.91780000       0.21850000
H       -3.81590000       1.01230000       1.58750000
