18
Properties=species:S:1:pos:R:3 gdb_41258=T pbc="F F F"
C       -0.04490000       1.48270000      -0.08220000
C        1.49630000       1.54650000       0.05820000
C        2.07830000       1.45740000       1.49160000
C        1.66260000      -0.00490000       1.43910000
C        1.99500000      -1.35800000       2.03720000
O        0.63170000      -1.79880000       1.76980000
C        0.18550000      -0.44740000       1.50700000
C        0.05730000      -0.05860000       0.03850000
N        1.58980000       0.02330000      -0.09260000
H       -0.65800000       2.01080000       0.65550000
H       -0.36360000       1.78930000      -1.08070000
H        2.03240000       2.16700000      -0.66180000
H        3.16530000       1.58310000       1.46870000
H        1.65830000       2.08310000       2.28320000
H        2.73980000      -1.95490000       1.50190000
H        2.20910000      -1.35900000       3.11520000
H       -0.57080000      -0.11370000       2.22630000
H       -0.50900000      -0.68870000      -0.64990000
