23
Properties=species:S:1:pos:R:3 gdb_96334=T pbc="F F F"
C        0.08420000       1.59250000       0.00930000
C       -0.02050000       0.05950000       0.02570000
C        0.62380000      -0.50330000      -1.25690000
O        0.14680000      -1.75010000      -1.72940000
C       -0.06760000      -2.81170000      -0.81680000
C        0.86950000      -2.89450000       0.39240000
C        0.45730000      -1.98640000       1.55980000
O        1.22430000      -2.26390000       2.72780000
C        0.64050000      -0.49250000       1.29900000
H        1.13150000       1.91320000      -0.04880000
H       -0.44280000       2.01750000      -0.85070000
H       -0.34280000       2.02800000       0.91780000
H       -1.08590000      -0.20890000       0.01400000
H        0.43630000       0.18190000      -2.09040000
H        1.71760000      -0.53450000      -1.11300000
H       -1.10850000      -2.78840000      -0.45000000
H        0.03150000      -3.72150000      -1.41870000
H        0.83850000      -3.93280000       0.75090000
H        1.90780000      -2.69920000       0.10040000
H       -0.61270000      -2.17550000       1.76030000
H        1.10870000      -3.19390000       2.94690000
H        1.71960000      -0.29010000       1.25580000
H        0.26330000       0.04270000       2.17740000
