21
Properties=species:S:1:pos:R:3 gdb_118985=T pbc="F F F"
C       -0.20680000       1.36820000       0.42190000
C       -0.02530000      -0.06350000      -0.05570000
O       -1.31390000      -0.66570000      -0.11630000
C       -1.35030000      -2.07630000      -0.24170000
C       -0.64380000      -2.56770000      -1.50570000
O       -0.73820000      -2.71130000       0.88090000
C       -1.73250000      -3.18660000       1.78290000
C       -3.02510000      -3.07370000       1.02540000
C       -2.80850000      -2.46390000      -0.13160000
H        0.75940000       1.88030000       0.46750000
H       -0.86020000       1.92150000      -0.25920000
H       -0.65890000       1.38620000       1.41750000
H        0.45520000      -0.07340000      -1.04560000
H        0.61550000      -0.62500000       0.63540000
H        0.43540000      -2.41370000      -1.43130000
H       -0.82430000      -3.63710000      -1.63670000
H       -1.01840000      -2.03160000      -2.38230000
H       -1.48580000      -4.21950000       2.06400000
H       -1.74690000      -2.58870000       2.70790000
H       -3.97190000      -3.43060000       1.41060000
H       -3.53180000      -2.20440000      -0.89260000
