14
Properties=species:S:1:pos:R:3 gdb_130263=T pbc="F F F"
N        0.02680000       1.35140000       0.10820000
C        0.05980000      -0.03510000       0.02220000
N       -1.01490000      -0.78720000       0.05490000
O       -0.58050000      -2.09770000       0.02970000
C        0.77920000      -2.11420000      -0.02680000
C        1.48280000      -3.38280000      -0.04540000
O        0.97190000      -4.47960000      -0.02900000
C        1.25250000      -0.82390000      -0.03010000
N        2.52730000      -0.29340000      -0.12000000
H        0.57330000       1.80260000      -0.61660000
H       -0.92200000       1.70640000       0.10490000
H        2.59100000      -3.26080000      -0.07460000
H        3.28060000      -0.94610000       0.04400000
H        2.64640000       0.54740000       0.43180000
