20
Properties=species:S:1:pos:R:3 gdb_79083=T pbc="F F F"
C       -0.11700000       1.59440000       0.07950000
C        0.01660000       0.08610000      -0.03790000
C        0.79000000      -0.59730000      -1.17840000
C        2.10200000      -0.16870000      -0.45310000
C        3.12030000      -1.27760000      -0.57760000
C        2.37940000      -2.37210000      -0.42600000
C        0.97120000      -1.83330000      -0.22190000
C       -0.11220000      -2.83460000       0.10280000
N        1.16870000      -0.58820000       0.73020000
H        0.77950000       2.14060000      -0.22310000
H       -0.94540000       1.94510000      -0.54580000
H       -0.34340000       1.86920000       1.11510000
H       -0.94480000      -0.36900000       0.21610000
H        0.58680000      -0.60710000      -2.25880000
H        2.43790000       0.86560000      -0.44700000
H        4.18470000      -1.16380000      -0.72370000
H        2.66070000      -3.41600000      -0.41050000
H        0.11750000      -3.34340000       1.04480000
H       -1.10370000      -2.38680000       0.19730000
H       -0.16450000      -3.59410000      -0.68480000
