21
Properties=species:S:1:pos:R:3 gdb_115709=T pbc="F F F"
C        0.05260000       1.55770000      -0.21720000
C        0.10910000       0.08630000       0.18280000
O        0.60300000      -0.10110000       1.50820000
C       -1.26020000      -0.57840000       0.03770000
O       -1.73180000      -0.55760000      -1.32800000
C       -1.87930000      -1.99730000      -1.35220000
C       -1.38430000      -2.12310000       0.10330000
C       -0.14630000      -2.96750000       0.33890000
O       -0.54580000      -4.32280000       0.16960000
H        1.04310000       2.01440000      -0.14280000
H       -0.31270000       1.65640000      -1.24290000
H       -0.63290000       2.11060000       0.43850000
H        0.82650000      -0.43110000      -0.46300000
H        0.06870000       0.44160000       2.09920000
H       -1.96860000      -0.05870000       0.70430000
H       -2.91710000      -2.29650000      -1.53620000
H       -1.23480000      -2.46260000      -2.10810000
H       -2.16180000      -2.45830000       0.79340000
H        0.64310000      -2.70060000      -0.38100000
H        0.24970000      -2.77810000       1.34600000
H        0.22720000      -4.88060000       0.29550000
