13
Properties=species:S:1:pos:R:3 gdb_129735=T pbc="F F F"
N       -0.00240000       1.40970000       0.16280000
C       -0.03350000       0.02900000       0.05920000
C       -1.17110000      -0.71770000       0.03180000
O       -2.39320000      -0.16470000       0.03550000
O       -1.21020000      -2.06090000      -0.01200000
N       -0.04350000      -2.81900000      -0.03090000
C        1.05640000      -2.14600000      -0.01540000
C        1.21930000      -0.68680000       0.01680000
O        2.31500000      -0.13050000      -0.00060000
H        0.91280000       1.76460000      -0.08790000
H       -0.76570000       1.90380000      -0.27520000
H       -3.05340000      -0.86990000       0.00720000
H        1.95300000      -2.75900000      -0.03850000
