13
Properties=species:S:1:pos:R:3 gdb_16607=T pbc="F F F"
O        0.01620000       0.01300000      -0.31960000
C       -0.04620000       1.17220000      -0.01940000
C       -1.28840000       2.02110000       0.23160000
N       -0.85260000       3.35950000       0.68560000
C       -0.10560000       3.30210000       1.92690000
C        0.63830000       3.41470000       0.62730000
C        1.17840000       2.13490000       0.10180000
O        2.30020000       1.86680000      -0.23730000
H       -1.83300000       2.12820000      -0.71440000
H       -1.96650000       1.55890000       0.95440000
H       -0.15960000       4.18640000       2.55420000
H       -0.06020000       2.35860000       2.47010000
H        1.10070000       4.35290000       0.34250000
