17
Properties=species:S:1:pos:R:3 gdb_87547=T pbc="F F F"
C       -0.10930000       1.49950000       0.01480000
N        0.00680000       0.04760000       0.06380000
C        1.31890000      -0.53280000      -0.18310000
C        0.72430000      -0.51490000       1.18370000
C        1.28250000       0.14840000       2.43780000
N        0.13450000       0.28390000       3.35080000
C        0.86800000      -1.02720000       3.28210000
C        0.33040000      -1.72680000       2.04130000
O       -0.05840000      -2.82990000       1.79810000
H        0.80040000       2.02600000       0.34710000
H       -0.32490000       1.80240000      -1.01390000
H       -0.94020000       1.81020000       0.65350000
H        1.33270000      -1.45960000      -0.75000000
H        2.15940000       0.13920000      -0.36060000
H        2.18080000       0.74190000       2.54230000
H        0.46590000       0.73930000       4.20260000
H        1.33540000      -1.45110000       4.16090000
