18
Properties=species:S:1:pos:R:3 gdb_12137=T pbc="F F F"
C        0.08020000       1.52830000      -0.00980000
C       -0.07980000       0.05010000       0.12890000
C       -1.37860000      -0.78610000       0.03500000
C       -0.71380000      -1.80210000       0.99830000
C       -1.35740000      -2.46400000       2.18040000
C       -0.81480000      -3.29470000       1.03630000
C        0.53500000      -0.94480000       1.02860000
O        0.98230000      -0.79900000      -0.33260000
H        1.09340000       1.82990000       0.26890000
H       -0.09520000       1.84300000      -1.04510000
H       -0.63420000       2.05960000       0.62740000
H       -2.24840000      -0.28900000       0.47430000
H       -1.62110000      -1.14080000      -0.97030000
H       -0.81590000      -2.47470000       3.12150000
H       -2.43400000      -2.38050000       2.29000000
H       -1.52860000      -3.77110000       0.37210000
H        0.09120000      -3.86890000       1.20050000
H        1.28010000      -0.84160000       1.81080000
