16
Properties=species:S:1:pos:R:3 gdb_44986=T pbc="F F F"
O        0.01750000       0.04820000      -0.31050000
C       -0.00010000       1.20290000       0.01660000
C       -1.26360000       2.05290000       0.23430000
C       -0.80660000       3.28410000       0.98530000
C       -0.05950000       3.08020000       2.26880000
C        0.73390000       3.30880000       0.99130000
C        1.24640000       2.06690000       0.27750000
C        1.44490000       4.54350000       0.83040000
N        2.02370000       5.53630000       0.69420000
H       -1.67170000       2.31440000      -0.74990000
H       -2.02490000       1.46340000       0.75320000
H       -1.34070000       4.21610000       0.84950000
H       -0.06750000       3.88760000       2.99090000
H       -0.01660000       2.08540000       2.70370000
H        1.99110000       1.49950000       0.84200000
H        1.69630000       2.32450000      -0.68840000
