20
Properties=species:S:1:pos:R:3 gdb_100796=T pbc="F F F"
O       -0.13480000       1.19290000      -0.79240000
C       -0.02610000       0.02370000       0.01930000
C       -1.41320000      -0.61300000       0.01710000
O       -1.84100000      -0.83550000      -1.31350000
C       -1.43260000      -1.95990000       0.75150000
O       -0.90620000      -1.81880000       2.07160000
C       -2.81160000      -2.57570000       0.76170000
C       -3.18870000      -3.60070000      -0.23750000
N       -2.98100000      -3.97900000       1.16970000
H        0.74900000       1.51680000      -0.98550000
H        0.69810000      -0.68590000      -0.40810000
H        0.28210000       0.26410000       1.04320000
H       -2.10350000       0.07970000       0.53400000
H       -1.57110000      -0.04730000      -1.80260000
H       -0.74110000      -2.63940000       0.23620000
H       -1.60140000      -1.45340000       2.62990000
H       -3.59200000      -1.91510000       1.14280000
H       -4.21560000      -3.66510000      -0.58430000
H       -2.44310000      -3.87770000      -0.97730000
H       -2.06570000      -4.40810000       1.28920000
