19
Properties=species:S:1:pos:R:3 gdb_40339=T pbc="F F F"
C       -0.25330000       1.38510000      -0.23310000
C        1.18970000       1.12130000       0.10260000
C        0.21200000      -0.03170000       0.02190000
C       -0.20560000      -0.73410000       1.24900000
C       -1.50260000      -1.42090000       1.69610000
C       -0.75800000      -2.69770000       2.08160000
C        0.47630000      -1.77530000       2.23750000
O        0.14120000      -0.94020000       3.38290000
C       -0.82890000      -0.32190000       2.54030000
H       -0.86990000       1.85790000       0.52350000
H       -0.50760000       1.65940000      -1.25070000
H        1.92840000       1.21790000      -0.68510000
H        1.54030000       1.40870000       1.08750000
H        0.29870000      -0.66090000      -0.86100000
H       -2.49490000      -1.30600000       1.27830000
H       -1.06530000      -3.24820000       2.97630000
H       -0.65500000      -3.37390000       1.22880000
H        1.50310000      -2.13560000       2.24830000
H       -1.30760000       0.59250000       2.86710000
