16
Properties=species:S:1:pos:R:3 gdb_11933=T pbc="F F F"
O        0.05500000       1.40910000       0.12490000
C       -0.00280000       0.03650000       0.07330000
C       -0.29260000      -0.76950000      -1.14190000
C       -1.20710000      -0.96970000       0.07030000
C       -0.46080000      -1.82770000       1.10560000
C        0.70420000      -0.78610000       1.13920000
C       -2.60700000      -0.75240000       0.01000000
C       -3.79510000      -0.55250000      -0.01840000
H       -0.22840000       1.77280000      -0.71980000
H       -0.76950000      -0.22570000      -1.95340000
H        0.36280000      -1.57560000      -1.47130000
H       -0.99170000      -1.89840000       2.05580000
H       -0.19740000      -2.83540000       0.76860000
H        1.70950000      -1.13890000       0.88640000
H        0.74370000      -0.25260000       2.09090000
H       -4.84240000      -0.38330000      -0.04620000
