17
Properties=species:S:1:pos:R:3 gdb_76160=T pbc="F F F"
C       -0.01970000       1.51360000      -0.03390000
C        0.04900000       0.00040000      -0.07640000
N       -1.06200000      -0.73180000      -0.62670000
C        1.37240000      -0.70270000      -0.29250000
O        2.56240000      -0.00440000      -0.39840000
C        0.71530000      -0.73530000       1.09390000
O        1.34170000       0.09740000       2.04140000
C        0.13930000      -1.93720000       1.63320000
N       -0.27550000      -2.90030000       2.12270000
H        0.88860000       1.96620000       0.36560000
H       -0.16880000       1.89600000      -1.04950000
H       -0.86240000       1.84360000       0.58260000
H       -1.92610000      -0.51100000      -0.14000000
H       -1.18940000      -0.49560000      -1.60620000
H        1.35240000      -1.60900000      -0.88770000
H        2.70430000       0.43770000       0.45100000
H        1.90080000      -0.45690000       2.59950000
