17
Properties=species:S:1:pos:R:3 gdb_30442=T pbc="F F F"
C       -0.02630000       1.45970000       0.10950000
N       -0.02220000       0.01030000       0.01820000
C        0.54730000      -0.66450000       0.92210000
O        1.17350000      -0.02030000       2.01010000
C        1.78800000      -0.73440000       2.98550000
C        2.38000000       0.15170000       4.03220000
N        1.86770000      -2.01190000       3.03150000
C        1.26870000      -2.70730000       1.98630000
C        0.63120000      -2.10580000       0.96450000
H        0.99040000       1.87610000       0.11660000
H       -0.55880000       1.86910000      -0.75200000
H       -0.52290000       1.81470000       1.02290000
H        1.60100000       0.77090000       4.48880000
H        2.86230000      -0.45800000       4.79470000
H        3.11070000       0.83220000       3.58300000
H        1.34990000      -3.78740000       2.04840000
H        0.16740000      -2.65220000       0.15440000
