27
Properties=species:S:1:pos:R:3 gdb_118222=T pbc="F F F"
C       -0.05440000       1.61160000      -0.10590000
C       -0.01210000       0.08270000      -0.04330000
C       -1.40490000      -0.55220000       0.00470000
C       -1.39100000      -2.08200000       0.04020000
C       -2.79980000      -2.66180000       0.20020000
O       -0.79920000      -2.52630000      -1.17870000
C       -0.17760000      -3.80880000      -1.15040000
C       -0.22480000      -4.35100000      -2.57550000
C        1.25490000      -3.71400000      -0.61660000
H        0.95320000       2.03800000      -0.14060000
H       -0.59150000       1.95630000      -0.99680000
H       -0.56370000       2.03360000       0.76820000
H        0.52230000      -0.31340000      -0.91270000
H        0.55980000      -0.23120000       0.84070000
H       -1.95010000      -0.18890000       0.88560000
H       -1.98450000      -0.23770000      -0.87360000
H       -0.77070000      -2.40690000       0.89170000
H       -2.78520000      -3.75580000       0.19340000
H       -3.24800000      -2.34030000       1.14620000
H       -3.44090000      -2.32510000      -0.62060000
H       -0.75450000      -4.48280000      -0.49800000
H        0.31080000      -3.67760000      -3.25250000
H        0.24070000      -5.33970000      -2.63220000
H       -1.25880000      -4.42910000      -2.92150000
H        1.85960000      -3.07520000      -1.26830000
H        1.27900000      -3.29120000       0.39220000
H        1.71930000      -4.70490000      -0.57490000
