14
Properties=species:S:1:pos:R:3 gdb_131716=T pbc="F F F"
O        0.14320000       1.37340000       0.00870000
C        0.05000000      -0.01950000      -0.04970000
C       -1.36370000      -0.51250000       0.04560000
N       -2.31290000       0.34930000       0.16660000
C       -3.60070000      -0.15690000       0.25060000
N       -3.97340000      -1.38500000       0.22240000
O       -2.94980000      -2.32980000       0.09080000
C       -1.62770000      -1.95820000      -0.00120000
N       -0.69330000      -2.80450000      -0.11930000
H       -0.76080000       1.70850000       0.10110000
H        0.48080000      -0.41330000      -0.98380000
H        0.62720000      -0.49640000       0.75820000
H       -4.40640000       0.56190000       0.35290000
H       -1.05220000      -3.76070000      -0.13490000
