19
Properties=species:S:1:pos:R:3 gdb_41684=T pbc="F F F"
C        0.19240000       1.25910000      -0.34780000
C        1.46500000       1.88680000       0.27150000
C        2.12440000       0.71160000       0.97940000
C        2.32840000      -0.56670000       0.15970000
C        3.03350000      -1.66730000       0.87740000
C        2.32880000      -2.12240000       1.91880000
C        0.99040000      -1.42650000       2.05840000
C        1.06580000      -0.35320000       0.99380000
O       -0.12910000       0.11500000       0.44390000
H       -0.67400000       1.92550000      -0.34580000
H        0.38240000       0.94990000      -1.38520000
H        2.09070000       2.36210000      -0.49020000
H        1.20400000       2.64960000       1.01280000
H        2.77480000       0.89930000       1.82740000
H        2.35930000      -0.50640000      -0.92380000
H        4.01310000      -2.02740000       0.58250000
H        2.65320000      -2.89490000       2.60630000
H        0.15200000      -2.10930000       1.86390000
H        0.83130000      -1.00910000       3.06000000
