18
Properties=species:S:1:pos:R:3 gdb_47560=T pbc="F F F"
O        0.08170000      -0.11250000      -0.12480000
C       -0.03380000       1.09290000      -0.02430000
C       -1.38300000       1.80770000      -0.01750000
C       -1.76080000       2.33320000       1.38040000
O       -0.67380000       2.92730000       2.08440000
C        0.04380000       3.85460000       1.34470000
C        1.51300000       3.90150000       1.61150000
C        1.00940000       3.33080000       0.29650000
N        1.05590000       1.91970000       0.09630000
H       -1.37010000       2.62890000      -0.74110000
H       -2.13460000       1.08530000      -0.34090000
H       -2.59590000       3.04440000       1.29280000
H       -2.08520000       1.50600000       2.01690000
H       -0.48310000       4.78210000       1.11710000
H        2.02080000       4.85870000       1.59640000
H        1.88010000       3.18630000       2.33860000
H        1.15530000       3.94460000      -0.59130000
H        1.94690000       1.44380000       0.11520000
