19
Properties=species:S:1:pos:R:3 gdb_68542=T pbc="F F F"
C       -0.16590000       1.51010000      -0.01470000
C        0.00280000      -0.00570000      -0.00320000
O       -1.27020000      -0.60620000      -0.09740000
C        1.20080000      -0.61120000      -0.86230000
C        2.13090000      -0.18120000       0.32820000
C        0.88640000      -0.61880000       1.15370000
O        0.76270000      -0.22480000       2.48240000
C        0.83750000      -2.11320000       0.77540000
C        1.04450000      -2.10110000      -0.54230000
H        0.77190000       2.06320000       0.02890000
H       -0.68330000       1.82040000      -0.93220000
H       -0.78050000       1.81350000       0.83860000
H       -1.79660000      -0.10130000      -0.72520000
H        1.39480000      -0.30010000      -1.88770000
H        3.02890000      -0.78240000       0.47010000
H        2.36430000       0.88310000       0.38170000
H       -0.06780000      -0.57860000       2.81950000
H        0.64800000      -2.92990000       1.45780000
H        1.06250000      -2.91670000      -1.25110000
