13
Properties=species:S:1:pos:R:3 gdb_52466=T pbc="F F F"
O        0.06050000       0.05470000      -0.01770000
C        0.00600000      -0.00060000       1.19090000
H        0.92270000      -0.05820000       1.81190000
C       -1.21370000       0.00130000       1.94950000
C       -2.23020000       0.00100000       2.62050000
C       -3.35390000       0.00070000       3.36080000
C       -4.37450000       0.00060000       4.03060000
C       -5.50150000       0.00050000       4.77120000
C       -6.51590000       0.00050000       5.43680000
C       -7.72850000       0.00020000       6.22990000
H       -8.31820000      -0.90410000       6.04210000
H       -8.35580000       0.86520000       5.98690000
H       -7.50110000       0.03810000       7.30100000
