21
Properties=species:S:1:pos:R:3 gdb_120613=T pbc="F F F"
C       -0.23570000       1.21180000       0.06090000
O       -0.24040000      -0.17460000      -0.17970000
C        0.82180000      -0.58740000      -1.01420000
C        0.75190000      -2.08640000      -1.14360000
C       -0.11550000      -2.74620000      -2.15920000
C        1.40440000      -2.82570000      -2.31410000
C        2.09980000      -2.10630000      -3.45420000
C        1.99670000      -4.14530000      -1.94760000
O        1.60070000      -4.85870000      -1.05660000
H        0.69140000       1.53880000       0.55870000
H       -0.34430000       1.79030000      -0.87090000
H       -1.08350000       1.43310000       0.71350000
H        0.74500000      -0.09520000      -1.99770000
H        1.78890000      -0.28330000      -0.57700000
H        0.84200000      -2.61580000      -0.19970000
H       -0.62400000      -3.66120000      -1.87800000
H       -0.63750000      -2.11870000      -2.87450000
H        1.55920000      -1.20880000      -3.76120000
H        3.11860000      -1.80560000      -3.18420000
H        2.16960000      -2.75760000      -4.33280000
H        2.86340000      -4.45190000      -2.57740000
