19
Properties=species:S:1:pos:R:3 gdb_91563=T pbc="F F F"
C       -0.16910000       1.50370000      -0.11010000
C        0.04080000      -0.00250000      -0.16070000
C        1.31160000      -0.55890000      -0.90900000
C        1.74650000      -1.21110000       0.40720000
O        1.86820000      -0.15810000       1.37960000
C        0.56620000      -0.69490000       1.11930000
C       -0.21790000      -1.24740000       2.28060000
C       -0.91510000      -0.21780000       3.04880000
C       -1.49410000       0.63220000       3.66990000
H        0.71950000       1.99500000       0.29570000
H       -0.35650000       1.90550000      -1.11160000
H       -1.02180000       1.76180000       0.52530000
H       -0.85870000      -0.51140000      -0.52320000
H        1.06390000      -1.27670000      -1.69470000
H        2.00800000       0.18730000      -1.30030000
H        2.34180000      -2.10200000       0.57440000
H       -0.94800000      -1.97590000       1.90380000
H        0.47200000      -1.79650000       2.93240000
H       -1.99830000       1.38260000       4.22690000
