23
Properties=species:S:1:pos:R:3 gdb_85944=T pbc="F F F"
C        0.07820000       1.52110000       0.03870000
C       -0.03770000      -0.01080000       0.00970000
C       -1.52900000      -0.39820000      -0.04510000
C        0.69420000      -0.56290000      -1.23720000
C        1.02550000      -2.03010000      -1.14390000
C        0.97730000      -2.73100000      -0.01140000
C        0.60170000      -2.13300000       1.31960000
O        1.42600000      -2.64260000       2.36930000
C        0.63390000      -0.59970000       1.26960000
H        1.12350000       1.83930000       0.11960000
H       -0.33710000       1.96430000      -0.87370000
H       -0.46710000       1.94130000       0.89100000
H       -2.02590000       0.10620000      -0.88110000
H       -1.66800000      -1.47440000      -0.18070000
H       -2.04520000      -0.10210000       0.87480000
H        0.08860000      -0.37750000      -2.13490000
H        1.62580000       0.00070000      -1.39880000
H        1.32170000      -2.52210000      -2.06820000
H        1.21970000      -3.79110000       0.00180000
H       -0.40460000      -2.47170000       1.59920000
H        2.33850000      -2.43030000       2.14210000
H        1.68760000      -0.28550000       1.28400000
H        0.17340000      -0.19510000       2.17790000
