16
Properties=species:S:1:pos:R:3 gdb_46406=T pbc="F F F"
N       -0.26150000       1.13860000      -0.36840000
C       -0.12350000      -0.07000000      -0.06690000
O        0.96760000      -0.77620000       0.39080000
C        0.17120000      -1.99370000       0.56020000
C       -1.05760000      -1.27940000      -0.02800000
O       -2.14300000      -1.22810000       0.85030000
C       -3.21250000      -0.41880000       0.35670000
C       -4.31650000      -0.44770000       1.30350000
C       -5.24310000      -0.45280000       2.06700000
H        0.60120000       1.66740000      -0.22570000
H        0.59040000      -2.82230000      -0.01310000
H        0.06230000      -2.25210000       1.61500000
H       -1.35810000      -1.62490000      -1.02820000
H       -2.86460000       0.61160000       0.20230000
H       -3.54690000      -0.80030000      -0.62240000
H       -6.05970000      -0.45750000       2.74600000
