18
Properties=species:S:1:pos:R:3 gdb_22737=T pbc="F F F"
C       -0.52920000       1.36890000      -0.00420000
C        0.09160000      -0.01480000      -0.02470000
O        1.35980000      -0.06480000      -0.75340000
C        2.06030000      -0.53320000       0.40540000
C        3.15030000      -1.55940000       0.34840000
C        3.46280000      -0.12710000       0.73850000
C        0.82120000      -0.49400000       1.21510000
N        0.57540000      -0.76360000       2.42500000
O       -0.78950000      -0.57120000       2.71610000
H        0.16860000       2.10150000       0.40990000
H       -0.79270000       1.67430000      -1.02120000
H       -1.43510000       1.35940000       0.60820000
H       -0.61100000      -0.75670000      -0.42610000
H        3.16230000      -2.32660000       1.11500000
H        3.45120000      -1.88500000      -0.64140000
H        3.97060000       0.49190000       0.00690000
H        3.68970000       0.09630000       1.77530000
H       -0.83340000      -0.80360000       3.64980000
