17
Properties=species:S:1:pos:R:3 gdb_17180=T pbc="F F F"
C        0.00410000       1.37970000       0.03650000
O       -0.04630000      -0.03360000      -0.06620000
C       -1.32180000      -0.54940000      -0.05210000
C       -2.49640000      -0.36230000      -1.01340000
N       -3.05500000      -1.38880000      -0.03330000
C       -1.65700000      -2.05460000       0.08500000
C       -1.72580000      -2.02350000       1.61560000
C       -2.33180000      -0.69630000       1.14660000
H        1.05750000       1.66520000       0.01100000
H       -0.51720000       1.86520000      -0.80000000
H       -0.44030000       1.73160000       0.97800000
H       -3.04350000       0.58570000      -1.00330000
H       -2.39480000      -0.74480000      -2.03410000
H       -1.37460000      -2.85910000      -0.59570000
H       -2.41710000      -2.73060000       2.08050000
H       -0.77400000      -1.97010000       2.14730000
H       -2.83880000       0.08770000       1.71130000
