18
Properties=species:S:1:pos:R:3 gdb_68978=T pbc="F F F"
C        0.04150000       1.49950000      -0.03240000
C        0.04430000       0.00960000       0.06980000
C        1.17670000      -0.92190000      -0.25370000
C        0.50770000      -0.99890000       1.10710000
C        1.23470000      -0.83890000       2.41870000
C        1.88850000      -2.07780000       2.85470000
N        2.39130000      -3.06410000       3.18530000
C       -0.86960000      -1.62550000       0.92070000
O       -1.20450000      -0.67020000      -0.12070000
H        1.02790000       1.90690000       0.20720000
H       -0.20800000       1.80630000      -1.05420000
H       -0.69790000       1.93980000       0.64350000
H        1.03630000      -1.71530000      -0.98270000
H        2.16780000      -0.47700000      -0.24430000
H        1.99970000      -0.05820000       2.33630000
H        0.54460000      -0.51870000       3.20920000
H       -0.91550000      -2.66290000       0.57080000
H       -1.53020000      -1.49730000       1.78700000
