20
Properties=species:S:1:pos:R:3 gdb_109823=T pbc="F F F"
C        0.22540000       1.17970000       0.17590000
O       -0.33470000      -0.00310000      -0.36510000
C        0.48550000      -0.61410000      -1.30880000
C        1.45480000      -1.69260000      -0.86060000
C        1.64760000      -2.02450000       0.60420000
C        0.17980000      -2.05250000      -1.61180000
C       -0.98210000      -2.74510000      -0.91150000
C       -2.19770000      -2.72440000      -1.72660000
N       -3.14860000      -2.71470000      -2.38310000
H        1.16660000       0.98040000       0.70610000
H        0.41810000       1.92430000      -0.61020000
H       -0.50490000       1.58710000       0.87820000
H        0.77550000       0.03890000      -2.13300000
H        2.35900000      -1.77940000      -1.45780000
H        0.78010000      -1.73660000       1.20250000
H        1.82270000      -3.09580000       0.75130000
H        2.51610000      -1.49340000       1.00700000
H        0.30660000      -2.35920000      -2.64520000
H       -0.73540000      -3.79070000      -0.69340000
H       -1.20280000      -2.25380000       0.03900000
