21
Properties=species:S:1:pos:R:3 gdb_119010=T pbc="F F F"
C        0.21720000       1.11200000       0.11480000
O        0.07670000      -0.28740000       0.06280000
C       -1.26740000      -0.70620000       0.01620000
C       -1.32520000      -2.24200000      -0.03760000
C       -2.76630000      -2.73110000      -0.08890000
O       -0.63290000      -2.73180000      -1.17160000
C        0.70240000      -3.03810000      -0.78990000
C        0.66520000      -3.09100000       0.75550000
O       -0.68740000      -2.80890000       1.09260000
H        1.28660000       1.33390000       0.14790000
H       -0.21990000       1.59830000      -0.77140000
H       -0.26230000       1.53640000       1.01080000
H       -1.81440000      -0.35770000       0.90740000
H       -1.77150000      -0.29700000      -0.87460000
H       -3.27050000      -2.34510000      -0.97860000
H       -2.76620000      -3.82180000      -0.12630000
H       -3.31320000      -2.40600000       0.79980000
H        0.97290000      -3.99830000      -1.24110000
H        1.39270000      -2.26630000      -1.14550000
H        0.91490000      -4.08030000       1.15250000
H        1.33640000      -2.34670000       1.19590000
