14
Properties=species:S:1:pos:R:3 gdb_128915=T pbc="F F F"
N        0.02840000      -1.16950000       0.11560000
C        0.01180000      -0.01490000       0.15090000
C        0.01060000       1.44490000       0.18950000
C        1.36800000       2.03760000      -0.25530000
C        1.36970000       3.52580000      -0.13740000
N        1.63150000       4.31320000      -1.14710000
O        1.53380000       5.59700000      -0.59460000
C        1.21640000       5.42400000       0.68730000
N        1.09630000       4.18640000       1.04600000
H       -0.79260000       1.81430000      -0.45720000
H       -0.21830000       1.77680000       1.20720000
H        2.16040000       1.62880000       0.38000000
H        1.59080000       1.75910000      -1.28710000
H        1.09390000       6.31240000       1.28950000
