19
Properties=species:S:1:pos:R:3 gdb_43379=T pbc="F F F"
O       -0.01630000       0.32650000      -1.10690000
C        0.01220000       1.19640000      -0.25550000
C       -1.23350000       1.52460000       0.48480000
C       -1.43420000       2.43160000       1.45070000
C       -0.48350000       3.40150000       2.09580000
C        0.96840000       3.41240000       1.62330000
C        1.13190000       3.48800000       0.07980000
C        1.29800000       1.93620000       0.05010000
C        1.62900000       2.00670000       1.57390000
H       -2.07040000       0.91340000       0.15770000
H       -2.44570000       2.49620000       1.85160000
H       -0.91100000       4.40910000       1.97690000
H       -0.51030000       3.21580000       3.18060000
H        1.51170000       4.17060000       2.19410000
H        0.31290000       3.92120000      -0.50000000
H        2.06420000       3.98130000      -0.20470000
H        2.06850000       1.53210000      -0.60690000
H        2.70870000       2.06130000       1.73200000
H        1.21760000       1.22600000       2.21860000
