21
Properties=species:S:1:pos:R:3 gdb_59884=T pbc="F F F"
C        0.07420000       1.51860000      -0.07560000
C       -0.00660000      -0.00230000       0.00340000
C        0.69080000      -0.70800000      -1.15020000
O        0.65340000      -0.46110000       1.21380000
C       -0.07330000      -0.45310000       2.34890000
O       -1.22610000      -0.09040000       2.41860000
C        0.72710000      -0.95260000       3.49600000
C        0.43820000      -0.34470000       4.85790000
C       -0.01370000      -1.73640000       4.56620000
H        1.11790000       1.84920000      -0.07650000
H       -0.40010000       1.87340000      -0.99610000
H       -0.44260000       1.97310000       0.77240000
H       -1.05460000      -0.30810000       0.06710000
H        1.74830000      -0.42910000      -1.19390000
H        0.62540000      -1.79360000      -1.03830000
H        0.22230000      -0.42940000      -2.09890000
H        1.74580000      -1.23550000       3.26490000
H        1.28420000      -0.19400000       5.51820000
H       -0.31720000       0.43180000       4.87930000
H       -1.07180000      -1.89270000       4.39260000
H        0.51430000      -2.56690000       5.02000000
