14
Properties=species:S:1:pos:R:3 gdb_6242=T pbc="F F F"
C        0.65290000       0.85430000       0.33820000
C       -0.57810000       0.07650000      -0.06480000
O       -1.62940000       0.15290000       0.52350000
C       -0.45970000      -0.83440000      -1.29510000
C        0.43870000      -2.05400000      -1.09410000
O        1.32780000      -2.11330000      -0.27300000
C        0.15770000      -3.16000000      -1.99000000
C       -0.08780000      -4.06600000      -2.74350000
H        0.99670000       1.47910000      -0.49460000
H        0.43000000       1.48000000       1.20290000
H        1.45900000       0.15080000       0.56760000
H       -1.46070000      -1.16090000      -1.58650000
H       -0.03530000      -0.27280000      -2.13960000
H       -0.29260000      -4.87670000      -3.40060000
