15
Properties=species:S:1:pos:R:3 gdb_44532=T pbc="F F F"
O        0.01980000       0.07590000       0.30720000
C        0.02300000       1.24780000       0.07250000
O       -1.16280000       1.95450000      -0.15920000
C       -0.79420000       3.26950000      -0.53340000
C       -1.06060000       4.61240000       0.18720000
C       -0.32180000       4.76340000       1.48070000
C        0.48030000       4.84520000       0.19260000
C        0.65380000       3.40980000      -0.22070000
C        1.16930000       2.21680000       0.07280000
H       -1.01900000       3.41090000      -1.59800000
H       -1.84130000       5.30220000      -0.10770000
H       -0.48060000       5.71300000       1.98280000
H       -0.17680000       3.92080000       2.14850000
H        1.05220000       5.71710000      -0.09190000
H        2.14740000       1.92140000       0.42250000
