15
Properties=species:S:1:pos:R:3 gdb_57227=T pbc="F F F"
C       -0.02870000       1.54780000      -0.00340000
C        0.00060000      -0.00530000       0.00110000
C        0.74910000      -0.53380000       1.25540000
C       -1.38750000      -0.51150000       0.02180000
N       -2.47730000      -0.89120000       0.06730000
C        0.66330000      -0.49200000      -1.21300000
C        1.24610000      -0.87050000      -2.19970000
C        1.90360000      -1.30020000      -3.31750000
N        2.46650000      -1.66310000      -4.26610000
H        0.99500000       1.92870000      -0.01710000
H       -0.55930000       1.92480000      -0.87930000
H       -0.53270000       1.90580000       0.89750000
H        0.24590000      -0.17790000       2.15760000
H        0.76710000      -1.62490000       1.26730000
H        1.77610000      -0.16180000       1.24710000
