17
Properties=species:S:1:pos:R:3 gdb_19399=T pbc="F F F"
C       -0.06650000       1.59320000      -0.10890000
C        0.04720000       0.08250000       0.02630000
C        1.04870000      -0.67110000      -0.87630000
N        2.40190000      -0.20420000      -0.49350000
C        1.73530000      -1.27610000       0.29940000
C        0.80270000      -0.53460000       1.23630000
C        1.00190000      -0.07420000       2.60640000
O        0.11710000      -1.16950000       2.29730000
H        0.92500000       2.05260000      -0.09510000
H       -0.56010000       1.86680000      -1.04780000
H       -0.65790000       2.01740000       0.70960000
H       -0.93490000      -0.40030000      -0.02550000
H        0.86000000      -1.09250000      -1.85580000
H        3.06710000      -0.66650000      -1.11320000
H        2.18330000      -2.25220000       0.43610000
H        1.90980000      -0.34400000       3.14370000
H        0.50870000       0.83310000       2.95200000
