17
Properties=species:S:1:pos:R:3 gdb_29828=T pbc="F F F"
C       -0.04330000       1.44360000       0.01540000
N       -0.01640000      -0.00530000       0.00420000
C       -0.00470000      -0.80210000      -1.10240000
C       -0.00020000      -2.12390000      -0.68990000
C        0.00190000      -3.27600000      -1.57310000
O        0.00320000      -4.43590000      -1.21390000
C        0.01270000      -2.11870000       0.74070000
C        0.00540000      -0.80750000       1.13990000
N       -0.07400000      -0.19950000       2.40560000
H        0.96410000       1.86940000       0.09470000
H       -0.50190000       1.80360000      -0.90750000
H       -0.63410000       1.78170000       0.86920000
H        0.00190000      -0.37750000      -2.09440000
H        0.00290000      -3.01700000      -2.65800000
H        0.02790000      -2.98990000       1.37600000
H       -0.32490000      -0.88120000       3.11070000
H        0.79660000       0.23980000       2.69090000
