20
Properties=species:S:1:pos:R:3 gdb_121871=T pbc="F F F"
C        0.03490000       1.79860000      -0.43610000
C       -0.09520000       0.39140000       0.15410000
O       -1.43080000       0.22480000       0.53500000
C       -1.72070000      -0.87710000       1.39600000
C       -3.01880000      -1.51520000       0.92320000
O       -2.87180000      -2.21210000      -0.28770000
C        0.30850000      -0.65750000      -0.90830000
N        1.64770000      -0.83770000      -1.05470000
O       -0.50800000      -1.24930000      -1.59130000
H        1.05850000       1.99980000      -0.76350000
H       -0.63420000       1.89750000      -1.29490000
H       -0.25050000       2.53830000       0.31540000
H        0.57930000       0.29260000       1.02200000
H       -0.91720000      -1.62490000       1.36270000
H       -1.81500000      -0.51330000       2.43020000
H       -3.36000000      -2.23270000       1.68050000
H       -3.78190000      -0.72060000       0.85650000
H       -2.27280000      -1.70180000      -0.85720000
H        2.32060000      -0.38750000      -0.45970000
H        1.97450000      -1.48500000      -1.75370000
