16
Properties=species:S:1:pos:R:3 gdb_34432=T pbc="F F F"
C       -0.04580000      -1.17380000       0.07320000
C       -0.01640000       0.02630000       0.04380000
C        0.01190000       1.46360000       0.01600000
O       -0.85080000       2.05020000       0.96940000
C       -0.66160000       3.46440000       0.76400000
C        0.35730000       3.45660000      -0.36010000
C        1.34950000       2.27830000      -0.08800000
N        1.42870000       1.91100000      -1.54600000
C       -0.01360000       2.28130000      -1.32350000
H       -0.06750000      -2.23540000       0.09450000
H       -1.61550000       3.93020000       0.48960000
H       -0.29390000       3.92730000       1.68750000
H        0.73120000       4.39480000      -0.77040000
H        2.20890000       2.24190000       0.58220000
H        1.88970000       2.67160000      -2.05270000
H       -0.76490000       2.24850000      -2.11310000
