15
Properties=species:S:1:pos:R:3 gdb_124006=T pbc="F F F"
C        0.07830000       1.43650000       0.32840000
N        1.08990000       2.11520000      -0.49570000
C        2.20430000       1.40090000      -0.87650000
C        3.48610000       1.68070000      -1.29680000
N        4.08340000       0.50020000      -1.65310000
N        3.26870000      -0.48800000      -1.48350000
N        2.10160000       0.05200000      -1.00200000
C        0.93930000      -0.65140000      -0.69510000
C       -0.05800000      -0.00980000      -0.08680000
H        0.31760000       1.49000000       1.40670000
H       -0.87400000       1.96040000       0.19350000
H        1.27050000       3.07400000      -0.24150000
H        3.99940000       2.62470000      -1.37050000
H        0.93760000      -1.69050000      -0.99440000
H       -0.97310000      -0.53150000       0.16140000
