23
Properties=species:S:1:pos:R:3 gdb_116480=T pbc="F F F"
C        0.17870000       1.54620000      -0.27010000
C        0.04180000       0.03390000      -0.09320000
C       -1.40260000      -0.42410000       0.13560000
O       -2.14440000      -0.01810000      -1.00790000
C       -3.54760000       0.03400000      -0.85250000
C       -4.23020000      -1.32820000      -0.97330000
C       -3.98630000      -2.27980000       0.20730000
C       -2.55230000      -2.68790000       0.44950000
C       -1.46820000      -1.91290000       0.42180000
H        1.21990000       1.82850000      -0.45310000
H       -0.42520000       1.88940000      -1.11310000
H       -0.15910000       2.08090000       0.62530000
H        0.42670000      -0.48780000      -0.97830000
H        0.64390000      -0.30470000       0.75850000
H       -1.80160000       0.11830000       1.01480000
H       -3.80770000       0.50550000       0.11140000
H       -3.90900000       0.69490000      -1.64820000
H       -5.31060000      -1.15950000      -1.07110000
H       -3.89170000      -1.79870000      -1.90340000
H       -4.38330000      -1.81580000       1.12420000
H       -4.58730000      -3.18340000       0.05760000
H       -2.40590000      -3.73630000       0.70270000
H       -0.51050000      -2.37490000       0.65500000
