11
Properties=species:S:1:pos:R:3 gdb_23796=T pbc="F F F"
F        0.03620000       0.05200000      -0.02190000
C       -0.03960000       1.37450000       0.02290000
C       -1.19050000       2.04450000      -0.10360000
C       -1.15750000       3.49270000      -0.03910000
N       -2.18960000       4.21830000      -0.14720000
O        0.09930000       4.08450000       0.15410000
N        1.27680000       3.36990000       0.28230000
C        1.19760000       2.08890000       0.21850000
H       -2.14790000       1.56420000      -0.25190000
H       -1.95160000       5.20810000      -0.07410000
H        2.13440000       1.55170000       0.32180000
