20
Properties=species:S:1:pos:R:3 gdb_89968=T pbc="F F F"
C       -0.90390000       1.18160000       0.17950000
C        0.01480000      -0.02790000       0.09580000
N        1.13220000       0.06240000      -0.89130000
C        2.15900000      -0.34280000       0.08960000
C        2.91590000      -1.70650000       0.05950000
C        4.12700000      -0.98580000       0.70900000
C        3.52430000       0.36920000       0.24950000
C        1.09510000      -0.19550000       1.18160000
O        1.10660000      -0.18050000       2.37770000
H       -0.31900000       2.10120000       0.26540000
H       -1.52960000       1.25710000      -0.71530000
H       -1.55900000       1.09810000       1.05250000
H       -0.57780000      -0.95190000       0.01070000
H        1.04620000      -0.56040000      -1.68700000
H        2.46610000      -2.55250000       0.58540000
H        3.12460000      -1.99880000      -0.97530000
H        4.11070000      -1.08230000       1.79670000
H        5.12080000      -1.24780000       0.34210000
H        3.90430000       0.68370000      -0.72670000
H        3.56400000       1.21420000       0.94060000
