19
Properties=species:S:1:pos:R:3 gdb_87760=T pbc="F F F"
O       -0.09050000       1.41040000       0.01640000
C       -0.05300000       0.01450000       0.05660000
C       -0.61250000      -0.71760000       1.25650000
C       -1.37000000      -0.68490000      -0.04390000
C       -2.68590000       0.02720000      -0.36330000
C       -2.85490000      -0.92520000      -1.59690000
C       -1.71130000      -1.82190000      -1.00940000
C       -4.19530000      -1.58440000      -1.74420000
O       -4.86690000      -1.59410000      -2.74370000
H        0.55540000       1.74700000       0.64610000
H        0.79570000      -0.43880000      -0.45860000
H       -0.13950000      -1.64500000       1.56560000
H       -0.99950000      -0.10770000       2.06750000
H       -3.45840000      -0.13730000       0.39620000
H       -2.62250000       1.09370000      -0.58330000
H       -2.57810000      -0.44980000      -2.53880000
H       -0.93990000      -2.14060000      -1.71480000
H       -2.10540000      -2.70710000      -0.49690000
H       -4.54670000      -2.09370000      -0.81260000
