21
Properties=species:S:1:pos:R:3 gdb_119028=T pbc="F F F"
O       -1.79860000       1.39900000      -1.28950000
C       -1.71710000      -0.01560000      -1.38820000
C       -1.58470000      -0.56510000       0.02990000
C       -1.61700000      -2.08170000       0.11620000
C       -0.47040000      -2.82260000      -0.57900000
C        0.84910000      -2.47110000      -0.06020000
C        1.92800000      -2.16720000       0.37420000
C       -2.15240000      -2.69990000       1.38280000
C       -2.96320000      -2.76860000       0.10980000
H       -1.82530000       1.76130000      -2.17970000
H       -2.61680000      -0.43560000      -1.86730000
H       -0.85020000      -0.31660000      -1.99670000
H       -0.65410000      -0.18690000       0.46790000
H       -2.40630000      -0.15060000       0.62470000
H       -0.62520000      -3.90310000      -0.46830000
H       -0.49670000      -2.62700000      -1.65910000
H        2.88350000      -1.90560000       0.75590000
H       -1.68740000      -3.61180000       1.74260000
H       -2.49080000      -2.03530000       2.17040000
H       -3.84990000      -2.14800000       0.03470000
H       -3.05350000      -3.72850000      -0.38840000
