19
Properties=species:S:1:pos:R:3 gdb_83599=T pbc="F F F"
C       -0.76130000       1.28150000      -0.54270000
C       -0.11210000      -0.09330000      -0.37420000
C        0.86670000      -0.54460000      -1.50040000
C        1.07610000      -2.06040000      -1.56920000
O        2.05490000      -2.02700000      -0.50180000
C        2.06730000      -0.57120000      -0.48310000
C        3.44070000       0.02300000      -0.60870000
C        1.08340000      -0.08450000       0.60970000
O        1.20960000       0.25210000       1.75060000
H       -0.02050000       2.04280000      -0.81030000
H       -1.52210000       1.26020000      -1.32900000
H       -1.23650000       1.59370000       0.39150000
H       -0.87420000      -0.84020000      -0.12430000
H        0.86550000       0.03710000      -2.42080000
H        0.21120000      -2.68700000      -1.32050000
H        1.52680000      -2.42380000      -2.50110000
H        3.94200000      -0.33720000      -1.51180000
H        3.39090000       1.11610000      -0.64220000
H        4.04350000      -0.26140000       0.25990000
