19
Properties=species:S:1:pos:R:3 gdb_1673=T pbc="F F F"
C        0.01230000       1.57580000       0.04100000
C       -0.02900000       0.04520000       0.04930000
C       -1.44410000      -0.55110000      -0.04250000
C       -2.15290000      -0.21000000      -1.37110000
C       -1.39930000      -2.07710000       0.08520000
C       -2.57440000      -2.73620000       0.78640000
O       -0.47990000      -2.72480000      -0.36160000
H        1.03740000       1.93400000       0.17750000
H       -0.35530000       1.99340000      -0.90130000
H       -0.59510000       1.99720000       0.85050000
H        0.57120000      -0.35890000      -0.77220000
H        0.44260000      -0.32210000       0.96890000
H       -2.05860000      -0.15770000       0.77910000
H       -1.56110000      -0.56920000      -2.21920000
H       -3.14360000      -0.67200000      -1.43190000
H       -2.28840000       0.86920000      -1.47790000
H       -3.52840000      -2.35260000       0.40980000
H       -2.52850000      -3.81880000       0.66210000
H       -2.53810000      -2.49390000       1.85570000
