18
Properties=species:S:1:pos:R:3 gdb_22310=T pbc="F F F"
O       -0.06440000       1.34710000       0.06650000
N        0.03930000      -0.05000000      -0.00350000
C       -1.10850000      -0.62710000      -0.03420000
C       -1.10640000      -2.13630000      -0.08350000
C       -2.24110000      -2.64800000      -0.97010000
O       -2.18210000      -4.06580000      -0.94910000
C       -3.59070000      -2.11780000      -0.46310000
C       -3.54710000      -0.63940000      -0.18530000
C       -2.40680000       0.04210000      -0.00570000
H        0.85990000       1.61370000       0.09690000
H       -0.14100000      -2.50120000      -0.43920000
H       -1.25940000      -2.54040000       0.92670000
H       -2.08050000      -2.27120000      -1.99340000
H       -2.85770000      -4.40330000      -1.54580000
H       -4.38490000      -2.33900000      -1.18880000
H       -3.85610000      -2.66840000       0.45140000
H       -4.49740000      -0.11350000      -0.13920000
H       -2.41460000       1.11040000       0.16790000
