17
Properties=species:S:1:pos:R:3 gdb_2483=T pbc="F F F"
C       -0.09770000       1.51030000      -0.03270000
C        0.07030000       0.00360000       0.07340000
O        0.91890000      -0.50600000      -0.99170000
C        1.91050000      -1.24270000      -0.25810000
C        1.08200000      -2.01190000       0.80050000
C        0.83210000      -0.54970000       1.29320000
C        2.31330000      -0.27250000       0.87820000
H        0.84890000       2.03840000       0.10950000
H       -0.48510000       1.77320000      -1.02160000
H       -0.81160000       1.86710000       0.71770000
H       -0.91680000      -0.47280000      -0.01080000
H        2.61120000      -1.70660000      -0.95060000
H        0.22690000      -2.59030000       0.44140000
H        1.69070000      -2.59770000       1.49130000
H        0.43720000      -0.31600000       2.28150000
H        3.02760000      -0.70230000       1.58230000
H        2.60910000       0.73940000       0.59520000
