18
Properties=species:S:1:pos:R:3 gdb_9965=T pbc="F F F"
C       -0.32430000       1.46520000       0.07930000
C        0.15900000       0.02090000      -0.09770000
C        0.80010000      -0.52920000       1.15860000
O        1.99750000       0.09530000       1.55610000
C       -0.05270000      -1.09480000       2.28700000
O       -1.43380000      -1.21580000       2.13250000
C        0.82750000      -2.00550000       1.44690000
O        0.14930000      -2.84340000       0.54380000
H        0.50160000       2.13200000       0.35180000
H       -0.75710000       1.85040000      -0.84850000
H       -1.08820000       1.52430000       0.86090000
H       -0.67970000      -0.61700000      -0.38610000
H        0.89400000      -0.03710000      -0.90920000
H        1.76650000       0.94130000       1.95560000
H        0.24510000      -0.87190000       3.30820000
H       -1.56890000      -1.92090000       1.48370000
H        1.74970000      -2.40140000       1.86470000
H        0.04950000      -3.70500000       0.96310000
