17
Properties=species:S:1:pos:R:3 gdb_126740=T pbc="F F F"
C       -0.04740000       1.57110000       0.15730000
C       -0.05090000       0.05860000      -0.05880000
N       -1.39820000      -0.50550000      -0.07210000
C       -2.02210000      -0.94460000      -1.19730000
N       -3.21990000      -1.41510000      -1.26090000
C       -3.94510000      -1.47230000      -0.05790000
N       -5.14410000      -1.90580000       0.05350000
C       -3.23700000      -0.99220000       1.13360000
N       -2.03440000      -0.53060000       1.13730000
H        0.98120000       1.94100000       0.19930000
H       -0.56710000       2.08660000      -0.65600000
H       -0.54340000       1.81920000       1.09890000
H        0.41690000      -0.20310000      -1.01200000
H        0.50880000      -0.44360000       0.73590000
H       -1.41970000      -0.88100000      -2.10300000
H       -5.47690000      -2.19680000      -0.86880000
H       -3.75010000      -1.02320000       2.08970000
