17
Properties=species:S:1:pos:R:3 gdb_68273=T pbc="F F F"
N       -0.06600000       1.46450000      -0.06620000
C       -0.01640000       0.01090000      -0.01970000
C        0.96120000      -0.53000000      -0.97190000
N        1.74560000      -0.87650000      -1.74930000
C       -0.07080000      -0.67160000       1.38580000
C       -1.53720000      -0.17160000       1.52910000
C       -1.41020000      -0.75080000       0.08660000
O       -2.36850000      -0.86200000      -0.89060000
C       -0.64260000      -1.94580000       0.69180000
H        0.82590000       1.85480000       0.22570000
H       -0.20540000       1.77180000      -1.02500000
H        0.71900000      -0.62870000       2.13140000
H       -2.16570000      -0.75080000       2.20780000
H       -1.68350000       0.90200000       1.62370000
H       -2.83500000      -0.02170000      -0.96330000
H        0.02390000      -2.50230000       0.03150000
H       -1.22840000      -2.60700000       1.33200000
