16
Properties=species:S:1:pos:R:3 gdb_67096=T pbc="F F F"
O        0.26110000       1.42500000      -0.10850000
C        0.12140000       0.05780000      -0.05220000
C        0.40730000      -0.94800000       1.08980000
C       -1.06700000      -0.96850000       1.59420000
C       -1.15810000      -0.88590000       0.06210000
C       -1.85540000      -0.91360000      -1.27130000
C       -0.80740000      -0.90220000      -2.11110000
C        0.43750000      -0.89510000      -1.21300000
N        0.02040000      -1.86860000      -0.08400000
H        0.08920000       1.79820000       0.76360000
H        1.31980000      -1.11950000       1.66160000
H       -1.39590000      -1.90780000       2.04570000
H       -1.41810000      -0.10550000       2.16570000
H       -2.91360000      -0.92630000      -1.48330000
H       -0.80820000      -0.92960000      -3.19130000
H        1.42300000      -1.01630000      -1.66510000
