19
Properties=species:S:1:pos:R:3 gdb_56680=T pbc="F F F"
C       -0.14130000       1.63430000      -0.09310000
C       -0.00000000       0.12330000      -0.05920000
C        0.78850000      -0.51190000      -1.23370000
C        1.85230000      -0.83280000      -0.17020000
O        1.02080000      -0.30720000       0.89170000
C       -1.32130000      -0.61390000       0.27130000
O       -1.07400000      -2.00120000       0.43020000
C       -1.99540000      -0.05620000       1.45060000
C       -2.53940000       0.37850000       2.43040000
H        0.81240000       2.09860000      -0.35890000
H       -0.88820000       1.93360000      -0.83730000
H       -0.45580000       2.01300000       0.88190000
H        0.30860000      -1.38920000      -1.66680000
H        1.08680000       0.18160000      -2.02120000
H        2.08060000      -1.89360000      -0.02120000
H        2.79130000      -0.27370000      -0.25580000
H       -1.98360000      -0.52230000      -0.59890000
H       -0.39350000      -2.05270000       1.11600000
H       -3.02620000       0.75900000       3.29440000
