18
Properties=species:S:1:pos:R:3 gdb_95860=T pbc="F F F"
C        0.04910000       1.52070000      -0.00070000
C        0.04760000       0.01060000      -0.05470000
O        0.76590000      -0.40410000      -1.18710000
C        0.81140000      -1.82100000      -1.29450000
C        1.46890000      -2.41810000      -0.04970000
C        0.75910000      -1.87250000       1.20490000
O        0.65180000      -0.46220000       1.14810000
C       -0.56860000      -2.50740000       1.39270000
N       -1.59960000      -3.00880000       1.53900000
H        1.07780000       1.88350000       0.06050000
H       -0.41790000       1.92140000      -0.90280000
H       -0.50500000       1.86330000       0.87560000
H       -0.97910000      -0.39460000      -0.10640000
H       -0.20600000      -2.22440000      -1.42130000
H        1.38440000      -2.04990000      -2.19580000
H        1.43590000      -3.51140000      -0.06770000
H        2.51400000      -2.09910000      -0.00100000
H        1.34890000      -2.09080000       2.10050000
