13
Properties=species:S:1:pos:R:3 gdb_123512=T pbc="F F F"
C        0.01680000       1.31200000       0.00940000
C        1.31910000       1.77070000      -0.00070000
N        2.08540000       0.63970000      -0.01430000
N        3.44180000       0.57710000      -0.02780000
N        3.96290000      -0.59250000      -0.03920000
C        3.19070000      -1.72210000      -0.03790000
C        1.82030000      -1.71280000      -0.02460000
C        1.20220000      -0.45710000      -0.01170000
N       -0.05650000      -0.05100000       0.00260000
H       -0.87900000       1.91590000       0.02140000
H        1.76170000       2.75150000       0.00040000
H        3.75800000      -2.64450000      -0.04850000
H        1.22630000      -2.61800000      -0.02380000
