19
Properties=species:S:1:pos:R:3 gdb_60795=T pbc="F F F"
C        0.78990000       1.18400000       0.15110000
N       -0.03530000      -0.01830000       0.04690000
C       -0.77760000      -0.37750000       1.14370000
O       -0.75980000       0.20970000       2.20490000
C       -0.05070000      -0.73480000      -1.23910000
C        1.38240000      -1.16360000      -1.63260000
C       -0.96240000      -1.97960000      -1.24640000
C       -0.56400000       0.19310000      -2.28130000
N       -0.95470000       0.91260000      -3.09680000
H        1.85250000       0.94000000       0.25330000
H        0.65050000       1.81620000      -0.73050000
H        0.46950000       1.72040000       1.04300000
H       -1.40130000      -1.26680000       0.98020000
H        1.77250000      -1.84410000      -0.87080000
H        1.36910000      -1.67710000      -2.59680000
H        2.05160000      -0.30610000      -1.71600000
H       -2.00560000      -1.73210000      -1.04270000
H       -0.91340000      -2.43100000      -2.23970000
H       -0.61420000      -2.71660000      -0.51870000
