16
Properties=species:S:1:pos:R:3 gdb_11604=T pbc="F F F"
N       -0.11520000       1.30030000       0.29650000
C       -0.00310000      -0.02460000      -0.10980000
O        0.93380000      -0.43160000      -0.77200000
N       -1.03340000      -0.82820000       0.32600000
C       -0.98510000      -2.26710000       0.14870000
C       -2.33200000      -2.79960000      -0.26830000
C       -2.84290000      -4.08190000       0.22580000
O       -3.32510000      -2.85010000       0.76630000
H        0.50770000       1.90920000      -0.21230000
H       -1.04370000       1.67640000       0.41910000
H       -1.63920000      -0.48550000       1.05480000
H       -0.23190000      -2.46180000      -0.61910000
H       -0.66670000      -2.77410000       1.07030000
H       -2.70720000      -2.42170000      -1.22000000
H       -3.55840000      -4.64400000      -0.37210000
H       -2.23130000      -4.68030000       0.89990000
