14
Properties=species:S:1:pos:R:3 gdb_129295=T pbc="F F F"
N        0.17370000       0.92050000      -0.88300000
C       -0.02060000       0.08210000       0.04110000
O        0.85430000      -0.01720000       1.09950000
N        1.49380000      -1.26320000       1.40110000
C        0.72600000      -2.21680000       1.77730000
C       -0.71880000      -2.30930000       1.88740000
C       -1.61490000      -1.62190000       1.16230000
C       -1.33520000      -0.66030000       0.09500000
N       -2.26410000      -0.42340000      -0.74980000
H        1.07950000       1.37740000      -0.77040000
H        1.29980000      -3.09660000       2.06910000
H       -1.07860000      -3.06980000       2.57410000
H       -2.67210000      -1.83830000       1.27870000
H       -1.92010000       0.25860000      -1.43500000
