21
Properties=species:S:1:pos:R:3 gdb_105106=T pbc="F F F"
C       -0.00740000       0.59340000       0.78360000
C       -0.41030000       0.48530000      -0.69240000
C        0.52870000      -0.36040000      -1.53810000
C        0.81860000       0.07900000      -2.91280000
O        1.77580000       0.27530000      -1.86780000
C        0.64050000      -1.82650000      -1.18040000
C        1.60770000      -2.73840000      -1.96800000
O        2.18640000      -3.24630000      -0.74960000
C        1.51060000      -2.24530000       0.03360000
H       -0.05670000      -0.37260000       1.29550000
H        1.01230000       0.97820000       0.87850000
H       -0.67630000       1.27760000       1.31380000
H       -1.42310000       0.06950000      -0.77400000
H       -0.44660000       1.48880000      -1.12940000
H        1.10100000      -0.64600000      -3.67470000
H        0.35210000       0.98620000      -3.29460000
H       -0.36320000      -2.25780000      -1.12090000
H        1.16020000      -3.53230000      -2.57610000
H        2.34860000      -2.19030000      -2.56340000
H        2.20030000      -1.46320000       0.37500000
H        0.99250000      -2.67720000       0.89730000
