12
Properties=species:S:1:pos:R:3 gdb_19638=T pbc="F F F"
N        0.08460000      -1.12320000      -0.04850000
C        0.02970000       0.03300000      -0.03660000
C       -0.08580000       1.44820000      -0.02020000
C       -0.94360000       2.43480000       0.81630000
C       -0.78610000       3.48170000      -0.29380000
C        0.23440000       3.36930000       0.80950000
N        1.09940000       2.39930000      -0.00300000
C        0.07930000       2.48020000      -1.09400000
H       -1.74410000       2.28820000       1.52520000
H       -1.45260000       4.28200000      -0.57750000
H        0.62020000       4.06880000       1.53840000
H        0.33190000       2.35930000      -2.14010000
