15
Properties=species:S:1:pos:R:3 gdb_43901=T pbc="F F F"
O        0.00070000       0.20050000      -0.73380000
C        0.00930000       1.26810000      -0.20080000
C       -1.09240000       2.20190000       0.34290000
C        0.00440000       3.25860000       0.70220000
C        0.65650000       3.00060000       2.08130000
O        1.55190000       2.00500000       1.53560000
C        1.12490000       2.26560000       0.18480000
C       -0.17840000       4.60840000       0.24880000
C       -0.33390000       5.74070000      -0.12610000
H       -1.76340000       2.53460000      -0.45410000
H       -1.69250000       1.82030000       1.17320000
H        1.21230000       3.85850000       2.47410000
H       -0.00070000       2.59460000       2.85830000
H        1.94150000       2.50020000      -0.50180000
H       -0.46810000       6.74070000      -0.45770000
