20
Properties=species:S:1:pos:R:3 gdb_80292=T pbc="F F F"
C       -0.07370000       1.56150000      -0.00290000
C        0.03890000       0.05530000       0.06490000
C        1.32670000      -0.70380000      -0.20940000
N        2.56620000       0.00780000      -0.11810000
C        2.82660000       0.54580000       1.12130000
O        3.74430000       1.28600000       1.39450000
C        1.71740000       0.04830000       2.06420000
C        0.73030000      -0.71150000       1.18500000
C        0.06630000      -1.93990000       1.76250000
H        0.85580000       2.06600000       0.27180000
H       -0.33330000       1.88350000      -1.01720000
H       -0.85790000       1.92510000       0.67010000
H       -0.84330000      -0.46310000      -0.30590000
H        1.32630000      -1.58750000      -0.83930000
H        3.06480000       0.35650000      -0.92220000
H        2.16010000      -0.60540000       2.82370000
H        1.29000000       0.90570000       2.59260000
H       -0.61770000      -1.67420000       2.57700000
H       -0.51630000      -2.47200000       1.00360000
H        0.80750000      -2.63930000       2.16660000
