19
Properties=species:S:1:pos:R:3 gdb_81248=T pbc="F F F"
O       -0.14070000       1.40400000      -0.09760000
C       -0.01040000       0.00740000       0.02470000
C       -0.01300000      -0.65060000       1.42700000
C       -1.52190000      -0.19930000       1.54830000
C       -1.36430000      -0.76710000       0.09910000
C       -2.03780000      -1.35110000      -1.11760000
C       -0.96090000      -2.44220000      -1.48980000
O       -0.04260000      -2.61870000      -0.37640000
C       -0.59650000      -1.92230000       0.71910000
H        0.73680000       1.79230000      -0.03140000
H        0.72760000      -0.38990000      -0.67690000
H        0.74910000      -0.59340000       2.20560000
H       -2.15080000      -0.77750000       2.23030000
H       -1.68440000       0.87150000       1.64280000
H       -2.99620000      -1.81750000      -0.87030000
H       -2.19760000      -0.64770000      -1.93830000
H       -1.43350000      -3.40430000      -1.71870000
H       -0.36750000      -2.13880000      -2.35850000
H       -1.14940000      -2.59590000       1.38530000
