19
Properties=species:S:1:pos:R:3 gdb_85552=T pbc="F F F"
C       -0.07120000       1.57410000       0.07770000
C       -0.04430000       0.07260000      -0.00730000
C       -0.05330000      -0.59080000      -1.16710000
C        0.02250000      -2.09060000      -1.30760000
C        0.33180000      -2.78790000       0.00940000
O        1.05400000      -3.75450000       0.08000000
C       -0.32340000      -2.14340000       1.21380000
C        0.05830000      -0.65270000       1.32230000
O        1.35300000      -0.47350000       1.89860000
H        0.77960000       1.93400000       0.66670000
H       -0.03510000       2.03930000      -0.91060000
H       -0.97750000       1.92440000       0.58830000
H       -0.10430000      -0.03020000      -2.09870000
H       -0.93660000      -2.48330000      -1.68230000
H        0.77620000      -2.38980000      -2.04350000
H       -1.41210000      -2.21110000       1.08460000
H       -0.03910000      -2.67470000       2.12400000
H       -0.61400000      -0.17750000       2.04600000
H        2.00370000      -0.82120000       1.27760000
