23
Properties=species:S:1:pos:R:3 gdb_41351=T pbc="F F F"
C        0.01380000       1.54230000       0.26890000
C        1.54830000       1.44510000      -0.07200000
C        1.18620000       0.21280000      -0.94710000
C        0.58450000       0.62480000      -2.32940000
C       -0.82520000      -0.04210000      -2.35350000
C       -0.80550000      -0.87970000      -1.06570000
C        0.31060000      -1.98000000      -1.23010000
C        1.70080000      -1.21950000      -1.08680000
C       -0.06080000       0.01970000      -0.07210000
H       -0.25680000       1.82910000       1.28710000
H       -0.52420000       2.18710000      -0.42910000
H        2.02310000       2.30050000      -0.56000000
H        2.12970000       1.17480000       0.81480000
H        0.51550000       1.71010000      -2.43680000
H        1.22410000       0.27050000      -3.14280000
H       -1.62130000       0.70910000      -2.32110000
H       -0.99420000      -0.65430000      -3.24470000
H       -1.77260000      -1.30010000      -0.77970000
H        0.21190000      -2.74410000      -0.45370000
H        0.21860000      -2.48850000      -2.19440000
H        2.35410000      -1.39250000      -1.94790000
H        2.23290000      -1.55320000      -0.19070000
H        0.18830000      -0.53660000       0.83910000
