16
Properties=species:S:1:pos:R:3 gdb_125486=T pbc="F F F"
C        0.17680000       1.45430000       0.10540000
C        0.05420000      -0.02690000      -0.00730000
N       -0.02900000      -0.72560000      -1.12850000
C       -0.12140000      -2.00930000      -0.68630000
N       -0.10160000      -2.15750000       0.62570000
N        0.00770000      -0.87090000       1.05360000
C        0.08780000      -0.58150000       2.47840000
C        1.41510000      -0.15010000       2.91190000
C        2.49910000       0.22030000       3.27180000
H        1.07450000       1.73910000       0.66320000
H        0.23050000       1.87710000      -0.89810000
H       -0.68590000       1.89270000       0.62050000
H       -0.20920000      -2.85720000      -1.34940000
H       -0.65480000       0.18420000       2.73200000
H       -0.20380000      -1.50380000       2.98660000
H        3.46210000       0.53400000       3.59250000
