13
Properties=species:S:1:pos:R:3 gdb_19104=T pbc="F F F"
O        0.01520000      -0.01570000       0.09760000
C       -0.01100000       1.17630000       0.07980000
C       -1.08180000       2.27440000      -0.01880000
C       -0.82060000       3.23280000       1.14400000
C        0.74480000       3.26710000       1.11680000
C       -0.07330000       4.17950000       0.26340000
N       -0.06930000       3.11930000      -0.84400000
C        1.00700000       2.31980000      -0.05490000
H       -2.08430000       2.11040000      -0.40750000
H       -1.38630000       3.40630000       2.04900000
H        1.33350000       3.46590000       2.00170000
H       -0.09940000       5.25070000       0.11560000
H        2.00160000       2.19920000      -0.47820000
