21
Properties=species:S:1:pos:R:3 gdb_116603=T pbc="F F F"
C       -0.19740000       1.57990000      -0.03360000
C        0.12220000       0.08640000       0.05950000
N        0.80760000      -0.36210000      -1.14310000
C        1.85480000      -1.05600000      -1.04800000
N        2.56370000      -1.58530000      -2.12050000
C        3.91220000      -1.94250000      -1.69660000
C        4.94440000      -0.82580000      -1.88790000
C        3.61290000      -2.25630000      -0.21750000
O        2.48790000      -1.43420000       0.11120000
H        0.72230000       2.17200000      -0.08250000
H       -0.77980000       1.79140000      -0.93520000
H       -0.77170000       1.91050000       0.83840000
H        0.69480000      -0.11600000       0.97450000
H       -0.82120000      -0.47130000       0.14740000
H        2.42730000      -1.10670000      -2.99800000
H        4.24660000      -2.84630000      -2.21720000
H        4.66530000       0.06550000      -1.31670000
H        5.93570000      -1.15330000      -1.55650000
H        5.02200000      -0.54460000      -2.94320000
H        3.34290000      -3.30930000      -0.07670000
H        4.43710000      -2.00150000       0.45300000
