25
Properties=species:S:1:pos:R:3 gdb_101741=T pbc="F F F"
C        0.06930000       1.55390000      -0.26240000
C       -0.00770000       0.02750000      -0.18930000
C       -1.43370000      -0.50280000      -0.02380000
C       -1.48540000      -2.03280000      -0.05880000
O       -1.92610000       0.01850000       1.20760000
C       -3.31690000       0.01690000       1.38300000
C       -4.00970000      -1.16950000       2.11850000
C       -4.87610000      -0.12290000       2.87060000
C       -3.82050000       0.95520000       2.50020000
H        1.10550000       1.89350000      -0.35380000
H       -0.48370000       1.93630000      -1.12820000
H       -0.36230000       2.00200000       0.63570000
H        0.42090000      -0.41680000      -1.09570000
H        0.59180000      -0.33820000       0.65380000
H       -2.05600000      -0.10650000      -0.84570000
H       -2.50990000      -2.40110000       0.04090000
H       -1.08410000      -2.40840000      -1.00590000
H       -0.89030000      -2.45150000       0.75930000
H       -3.82210000       0.22880000       0.42800000
H       -4.51750000      -1.93060000       1.52060000
H       -3.29560000      -1.65600000       2.78900000
H       -5.83250000       0.05210000       2.37020000
H       -5.06750000      -0.29640000       3.93110000
H       -3.05170000       1.04490000       3.27300000
H       -4.16200000       1.95390000       2.21870000
