15
Properties=species:S:1:pos:R:3 gdb_124101=T pbc="F F F"
C        0.02620000       1.37590000       0.01430000
O        1.29870000       1.94280000      -0.04050000
C        2.05120000       1.72360000       1.15900000
C        1.90790000       0.28470000       1.54620000
C        2.55550000      -0.59190000       2.39000000
N        1.94670000      -1.79240000       2.22940000
N        0.92760000      -1.77340000       1.33350000
C        0.91630000      -0.51450000       0.93160000
O        0.04710000      -0.05340000       0.00540000
H       -0.51430000       1.70970000       0.91590000
H       -0.50500000       1.67410000      -0.88950000
H        3.08160000       1.99850000       0.91590000
H        1.69940000       2.40730000       1.94840000
H        3.38380000      -0.46290000       3.06920000
H        2.16290000      -2.65820000       2.69050000
