20
Properties=species:S:1:pos:R:3 gdb_121168=T pbc="F F F"
O       -0.00030000       1.40850000       0.24720000
C        0.01990000      -0.00860000       0.16050000
C       -1.41430000      -0.48020000      -0.05010000
C       -1.50950000      -1.98840000      -0.18890000
O       -1.09020000      -2.69080000       1.01040000
C       -2.33790000      -3.41740000       1.10400000
C       -2.88390000      -2.65910000      -0.09850000
C       -4.22060000      -2.10100000      -0.37840000
N       -3.68800000      -3.24050000      -1.15880000
H        0.88730000       1.70760000       0.46420000
H        0.64980000      -0.34790000      -0.67910000
H        0.41850000      -0.46610000       1.07710000
H       -2.02940000      -0.14710000       0.79260000
H       -1.81360000      -0.00640000      -0.95640000
H       -0.92170000      -2.33220000      -1.05590000
H       -2.20700000      -4.49410000       0.93980000
H       -2.83930000      -3.25040000       2.06470000
H       -5.06040000      -2.34480000       0.26710000
H       -4.28090000      -1.12300000      -0.84970000
H       -3.36090000      -2.92380000      -2.06940000
