15
Properties=species:S:1:pos:R:3 gdb_101968=T pbc="F F F"
O        0.21540000       1.27550000       0.10610000
C       -0.02270000      -0.10790000       0.13490000
C       -1.54240000      -0.45100000       0.05380000
C       -1.74790000      -1.99350000       0.13570000
O       -0.84560000      -2.77710000       0.21250000
C       -2.24540000       0.14510000       1.19420000
C       -2.77940000       0.60840000       2.16660000
C       -2.13270000      -0.02460000      -1.21670000
C       -2.61720000       0.24550000      -2.28210000
H       -0.21170000       1.66410000       0.87850000
H        0.47580000      -0.53930000      -0.73500000
H        0.37930000      -0.58970000       1.03540000
H       -2.81310000      -2.29800000       0.10670000
H       -3.27020000       1.02310000       3.01290000
H       -3.03850000       0.51670000      -3.21900000
