17
Properties=species:S:1:pos:R:3 gdb_32270=T pbc="F F F"
N        0.01220000       1.40880000       0.13600000
C        0.03930000       0.01300000       0.02960000
C       -1.13990000      -0.73870000       0.11160000
N       -1.18980000      -2.06770000       0.07620000
C       -0.03340000      -2.72110000      -0.05980000
C        1.19550000      -2.07440000      -0.14730000
C        1.25260000      -0.68570000      -0.09160000
C        2.56790000       0.06190000      -0.13860000
O        3.70790000      -0.76000000       0.01640000
H        0.66330000       1.89840000      -0.46150000
H       -0.91420000       1.80270000       0.04230000
H       -2.09280000      -0.21940000       0.21660000
H       -0.09110000      -3.80550000      -0.10000000
H        2.11360000      -2.64000000      -0.25790000
H        2.69230000       0.54800000      -1.11660000
H        2.54640000       0.87080000       0.61000000
H        3.67820000      -1.13650000       0.90240000
