17
Properties=species:S:1:pos:R:3 gdb_39784=T pbc="F F F"
C       -0.03130000       1.54960000      -0.07790000
C        1.29820000       0.83360000      -0.08900000
C       -0.00240000       0.03970000      -0.08070000
C        0.17120000      -0.69670000      -1.41990000
O        1.58640000      -1.11420000      -1.36290000
C        1.86140000       0.33490000      -1.43070000
C        0.67400000       0.36970000      -2.40050000
C        0.64230000       0.40640000      -3.85110000
O        0.02020000       1.43430000      -3.04030000
H       -0.30470000       2.00750000       0.86790000
H       -0.37110000       2.09720000      -0.94590000
H        1.95510000       0.87280000       0.77080000
H       -0.32960000      -0.52170000       0.78540000
H       -0.51610000      -1.49760000      -1.68720000
H        2.88540000       0.57850000      -1.70890000
H        1.51950000       0.72970000      -4.40870000
H       -0.05130000      -0.22910000      -4.39860000
