19
Properties=species:S:1:pos:R:3 gdb_126258=T pbc="F F F"
C        0.05770000       1.62670000       0.07560000
C       -0.01540000       0.09270000      -0.04900000
C        0.64380000      -0.45760000      -1.27400000
C        0.11330000      -0.77350000      -2.51520000
O       -1.17680000      -0.68790000      -2.95040000
C        1.19470000      -1.22750000      -3.29070000
N        2.32760000      -1.19870000      -2.59010000
N        1.98310000      -0.72990000      -1.37790000
C        2.99590000      -0.60750000      -0.35390000
H        1.09510000       1.97100000       0.12580000
H       -0.40640000       2.11070000      -0.78900000
H       -0.45630000       1.97000000       0.97900000
H        0.41520000      -0.36870000       0.84800000
H       -1.06910000      -0.21760000      -0.05260000
H       -1.72930000      -0.35970000      -2.23440000
H        1.18740000      -1.56820000      -4.31450000
H        3.10050000       0.42850000      -0.01450000
H        2.76730000      -1.23980000       0.51110000
H        3.93520000      -0.93580000      -0.79760000
