23
Properties=species:S:1:pos:R:3 gdb_76895=T pbc="F F F"
C       -0.16540000       1.51420000       0.34710000
C        0.20380000       0.04150000       0.20550000
C        1.11340000      -0.40200000      -0.99680000
C        1.59820000       0.65420000      -1.98390000
C        2.14900000      -1.00120000       0.01030000
C        3.44620000      -0.22150000       0.24260000
O        3.09010000       0.90060000       1.04510000
C        2.13020000       0.42030000       1.98210000
C        1.24160000      -0.55870000       1.20960000
H        0.71700000       2.15970000       0.35830000
H       -0.80740000       1.83670000      -0.47960000
H       -0.71900000       1.68800000       1.27690000
H       -0.71910000      -0.54710000       0.21960000
H        0.62910000      -1.20450000      -1.56250000
H        2.11030000       1.48030000      -1.48310000
H        2.29580000       0.21790000      -2.70790000
H        0.75970000       1.07260000      -2.55070000
H        2.33380000      -2.07060000      -0.10820000
H        4.17550000      -0.85540000       0.77390000
H        3.92050000       0.15720000      -0.66640000
H        2.63420000      -0.10380000       2.81110000
H        1.60540000       1.28620000       2.39360000
H        0.84830000      -1.34620000       1.85530000
