16
Properties=species:S:1:pos:R:3 gdb_2019=T pbc="F F F"
O       -0.07410000       1.41700000       0.05300000
C       -0.00180000      -0.00090000       0.00100000
C       -1.41150000      -0.52780000       0.02130000
C       -2.56400000      -0.26500000      -0.97630000
N       -3.23700000      -1.19940000       0.04760000
C       -1.91440000      -1.98710000      -0.01680000
C       -2.50700000      -0.33890000       1.09680000
H        0.82200000       1.76540000       0.04350000
H        0.50670000      -0.34690000      -0.91420000
H        0.55570000      -0.40950000       0.86010000
H       -2.99780000       0.73710000      -1.00600000
H       -2.48870000      -0.70000000      -1.97740000
H       -1.78930000      -2.55310000      -0.94470000
H       -1.73960000      -2.61730000       0.86030000
H       -2.37760000      -0.84380000       2.05880000
H       -2.93640000       0.65770000       1.22150000
