16
Properties=species:S:1:pos:R:3 gdb_22651=T pbc="F F F"
O       -0.10760000       1.35300000       0.00900000
N        0.03130000      -0.03920000       0.00460000
C       -1.10530000      -0.63060000       0.01100000
C       -1.22520000      -2.14830000       0.00800000
C       -2.75450000      -2.41810000       0.01810000
C       -3.37220000      -1.03950000       0.02580000
C       -4.82010000      -0.81070000       0.03640000
O       -5.64180000      -1.70150000       0.03990000
C       -2.44550000      -0.05940000       0.02170000
H        0.80850000       1.65070000       0.00340000
H       -0.73890000      -2.57300000      -0.87420000
H       -0.72660000      -2.57740000       0.88110000
H       -3.08950000      -2.98810000      -0.85460000
H       -3.07730000      -2.99240000       0.89250000
H       -5.12540000       0.25850000       0.04120000
H       -2.64130000       1.00440000       0.02570000
