16
Properties=species:S:1:pos:R:3 gdb_9014=T pbc="F F F"
C        0.21380000       1.03400000       1.05200000
C        0.00070000      -0.13460000       0.20980000
C       -0.16210000      -1.09500000      -0.49870000
C       -0.39380000      -2.26440000      -1.33690000
C       -1.57880000      -3.14350000      -0.85260000
O       -1.84220000      -4.15240000      -1.78330000
C       -1.28940000      -3.74510000       0.50880000
O       -1.33110000      -4.93970000       0.68700000
H        1.07120000       0.89400000       1.71940000
H        0.40560000       1.92780000       0.44830000
H       -0.66250000       1.23930000       1.67660000
H       -0.62800000      -1.96370000      -2.36420000
H        0.50390000      -2.89210000      -1.39610000
H       -2.45330000      -2.48070000      -0.72940000
H       -1.79150000      -4.98470000      -1.28560000
H       -1.03680000      -3.03650000       1.31940000
