20
Properties=species:S:1:pos:R:3 gdb_111042=T pbc="F F F"
C        0.62150000      -0.58740000       1.41600000
C       -0.16850000      -0.20730000       0.16480000
N        0.62670000      -0.45960000      -1.04090000
C       -0.06300000      -0.36030000      -2.39430000
C        1.13690000      -1.16610000      -2.94980000
C        0.64010000      -1.86890000      -1.64320000
C       -0.81070000      -1.70830000      -2.17020000
C        1.29360000      -3.03220000      -0.97450000
O        0.81470000      -4.13730000      -0.92220000
H        0.78770000      -1.66910000       1.46830000
H        1.59710000      -0.09340000       1.41940000
H        0.07680000      -0.29630000       2.31930000
H       -1.14850000      -0.70800000       0.18620000
H       -0.36980000       0.87140000       0.17220000
H       -0.46170000       0.58810000      -2.75770000
H        0.98670000      -1.71600000      -3.87950000
H        2.10790000      -0.67740000      -2.87430000
H       -1.61440000      -1.73000000      -1.43650000
H       -1.07910000      -2.28530000      -3.05770000
H        2.28980000      -2.80170000      -0.53410000
