20
Properties=species:S:1:pos:R:3 gdb_108022=T pbc="F F F"
C        0.15490000       1.37510000       0.44490000
C       -0.12830000       0.06230000      -0.29580000
C       -1.52780000      -0.45880000      -0.08070000
C       -2.03060000      -0.90150000       1.28180000
C       -3.38240000      -1.43740000       0.86720000
C       -3.93350000      -0.64770000      -0.31510000
C       -3.28040000      -1.98500000      -0.53150000
N       -2.04970000      -1.36750000      -1.15920000
C       -2.67270000      -0.01980000      -0.92710000
H        1.16580000       1.73320000       0.22820000
H       -0.55050000       2.15730000       0.14520000
H        0.07340000       1.25220000       1.52980000
H        0.02520000       0.19850000      -1.37160000
H        0.58840000      -0.70650000       0.01970000
H       -1.39060000      -1.67450000       1.72250000
H       -2.10000000      -0.06440000       1.98460000
H       -4.07570000      -1.88550000       1.56790000
H       -4.95950000      -0.32870000      -0.42930000
H       -3.65220000      -2.93760000      -0.88410000
H       -2.63440000       0.75900000      -1.68090000
