16
Properties=species:S:1:pos:R:3 gdb_98726=T pbc="F F F"
O        0.09870000       1.35870000      -0.18840000
C       -0.04540000      -0.02380000      -0.26460000
C       -1.45810000      -0.45980000       0.08430000
O       -2.29410000       0.37310000       0.36840000
C       -1.75490000      -1.92120000       0.05610000
C       -2.93020000      -2.42240000       0.85650000
C       -3.03770000      -2.40880000      -0.64280000
C       -3.91470000      -1.49360000      -1.32100000
N       -4.63640000      -0.80360000      -1.90370000
H       -0.78280000       1.69830000       0.03480000
H        0.18510000      -0.40510000      -1.27520000
H        0.65060000      -0.53800000       0.42060000
H       -0.89920000      -2.57600000      -0.06820000
H       -2.84660000      -3.38590000       1.34390000
H       -3.48440000      -1.65910000       1.38960000
H       -2.93660000      -3.36200000      -1.15120000
