17
Properties=species:S:1:pos:R:3 gdb_12545=T pbc="F F F"
C       -0.03340000       1.52600000      -0.02900000
C        0.00970000       0.01190000      -0.04330000
O        0.86980000      -0.40230000      -1.05270000
C        0.73120000      -1.77050000      -1.40430000
C        1.41770000      -2.69980000      -0.40940000
N        0.93080000      -2.71690000       0.95660000
C        0.56140000      -1.70320000       1.60770000
O        0.41860000      -0.39000000       1.27260000
H        0.97500000       1.91770000       0.12500000
H       -0.41500000       1.89270000      -0.98430000
H       -0.67900000       1.87730000       0.77820000
H       -0.98890000      -0.42620000      -0.21070000
H       -0.33600000      -2.02740000      -1.49390000
H        1.19450000      -1.88400000      -2.38950000
H        1.35770000      -3.72240000      -0.80230000
H        2.48550000      -2.44030000      -0.37930000
H        0.33790000      -1.81560000       2.66930000
