18
Properties=species:S:1:pos:R:3 gdb_93442=T pbc="F F F"
C       -0.19530000       1.49980000       0.00850000
C        0.11020000       0.00140000      -0.04940000
C        1.06420000      -0.37890000      -1.18290000
O        1.26460000      -1.79500000      -1.25680000
C        1.57590000      -2.45770000      -0.10350000
N        1.73310000      -3.71160000      -0.07010000
C        1.72310000      -1.61180000       1.13750000
C        0.65940000      -0.52590000       1.27730000
O        0.30220000      -0.10830000       2.35050000
H        0.72630000       2.08700000       0.08350000
H       -0.73590000       1.82630000      -0.88440000
H       -0.80100000       1.71800000       0.88970000
H       -0.82580000      -0.55300000      -0.21740000
H        0.65390000      -0.09520000      -2.15440000
H        2.03060000       0.13230000      -1.06660000
H        1.60820000      -4.10770000      -1.00430000
H        1.74840000      -2.24740000       2.02120000
H        2.68770000      -1.08250000       1.08820000
