17
Properties=species:S:1:pos:R:3 gdb_75592=T pbc="F F F"
N        0.14370000       0.92890000       1.01210000
C        0.02840000      -0.20330000       0.23530000
N       -1.10920000      -0.75840000       0.10360000
C       -1.44790000      -1.97200000      -0.59090000
C       -0.36210000      -2.73310000      -1.35690000
C        0.90400000      -2.90150000      -0.53110000
O        1.78330000      -1.77420000      -0.67010000
C        1.42140000      -0.52760000      -0.35180000
O        2.21310000       0.36860000      -0.51170000
H        0.92220000       1.52830000       0.78380000
H       -0.73240000       1.37480000       1.23660000
H       -1.88290000      -2.65080000       0.15860000
H       -2.27720000      -1.74050000      -1.27290000
H       -0.75550000      -3.71830000      -1.63300000
H       -0.09500000      -2.22570000      -2.29130000
H        0.67650000      -3.06510000       0.52920000
H        1.50900000      -3.73860000      -0.88390000
