13
Properties=species:S:1:pos:R:3 gdb_130542=T pbc="F F F"
O        0.02130000      -0.06660000       0.00310000
C       -0.01960000       1.15160000       0.00740000
C        1.20260000       1.94520000       0.00090000
C        2.21850000       2.59070000      -0.00460000
C       -1.27160000       1.90880000       0.01890000
C       -2.54740000       1.35920000       0.02640000
N       -3.40010000       2.39650000       0.03580000
N       -2.78650000       3.60580000       0.03520000
C       -1.49590000       3.31100000       0.02490000
H        3.12520000       3.14510000      -0.00970000
H       -2.86980000       0.33090000       0.02560000
H       -4.40640000       2.36570000       0.04290000
H       -0.75840000       4.09930000       0.02210000
