16
Properties=species:S:1:pos:R:3 gdb_109294=T pbc="F F F"
O        0.19330000       1.34820000      -0.15150000
C        0.01300000      -0.01510000       0.10170000
C       -1.44580000      -0.38460000       0.16260000
N       -2.34700000       0.48280000      -0.00040000
C       -3.73330000       0.04820000       0.08650000
C       -3.89660000      -1.41130000      -0.35740000
C       -2.87600000      -2.29920000       0.31280000
O       -3.03280000      -3.41820000       0.69120000
O       -1.62050000      -1.72100000       0.44710000
H       -0.69810000       1.72430000      -0.21330000
H        0.48870000      -0.63200000      -0.67700000
H        0.47740000      -0.31090000       1.05560000
H       -4.07810000       0.17920000       1.12130000
H       -4.35060000       0.70370000      -0.53350000
H       -4.89020000      -1.81140000      -0.15100000
H       -3.72400000      -1.48240000      -1.43930000
