17
Properties=species:S:1:pos:R:3 gdb_97439=T pbc="F F F"
C       -0.50540000       0.20470000       0.02640000
N        0.44690000      -0.75890000       0.54370000
C        0.83970000      -0.62030000       1.73210000
O        1.73430000      -1.43200000       2.33240000
C        2.30220000      -2.46780000       1.53560000
C        1.35100000      -3.66650000       1.34350000
O        1.97690000      -4.67840000       0.58010000
C        0.86740000      -4.18060000       2.63920000
N        0.52310000      -4.61320000       3.65380000
H       -0.79410000       0.97740000       0.75520000
H       -0.08290000       0.70140000      -0.85380000
H       -1.41150000      -0.31500000      -0.30350000
H        0.52280000       0.15890000       2.43330000
H        2.56600000      -2.09280000       0.54400000
H        3.20000000      -2.78750000       2.07130000
H        0.49210000      -3.32750000       0.75910000
H        2.66090000      -5.09250000       1.11940000
