16
Properties=species:S:1:pos:R:3 gdb_96968=T pbc="F F F"
C        0.00820000       1.51360000      -0.17660000
N       -0.03400000       0.06250000      -0.06210000
C        0.58850000      -0.64180000      -0.88070000
O        1.36250000      -0.27610000      -2.00220000
C        1.47650000      -1.65770000      -2.38630000
C        2.20760000      -2.43310000      -1.37650000
C        0.72310000      -2.10870000      -1.11540000
C       -0.29760000      -3.15930000      -0.96130000
O       -0.12650000      -4.31340000      -1.27970000
H        0.55690000       1.87660000      -1.05280000
H       -1.01710000       1.89550000      -0.21480000
H        0.47050000       1.92680000       0.72620000
H        1.28110000      -1.91440000      -3.41840000
H        2.35160000      -3.48690000      -1.59430000
H        2.96450000      -1.94980000      -0.76790000
H       -1.25880000      -2.80410000      -0.53710000
