19
Properties=species:S:1:pos:R:3 gdb_70589=T pbc="F F F"
O       -0.08880000       1.35780000       0.07810000
C       -0.02800000      -0.04510000       0.06520000
C       -0.19200000      -0.67650000       1.42610000
C        1.15030000      -0.72540000       0.72090000
O        1.69050000      -1.89620000       0.18370000
C        0.74680000      -2.77990000      -0.42340000
C       -0.09640000      -2.10990000      -1.49610000
C       -1.55720000      -1.80720000      -1.24410000
C       -0.54700000      -0.69430000      -1.19260000
H        0.55030000       1.68710000      -0.56400000
H       -0.27130000       0.01800000       2.25440000
H       -0.79220000      -1.57140000       1.53310000
H        1.94470000      -0.10220000       1.11730000
H        1.35310000      -3.57910000      -0.85550000
H        0.11410000      -3.23610000       0.35150000
H        0.19960000      -2.31870000      -2.51830000
H       -2.23670000      -1.83170000      -2.08870000
H       -1.99480000      -2.15570000      -0.31410000
H       -0.55460000      -0.00210000      -2.02920000
