19
Properties=species:S:1:pos:R:3 gdb_102933=T pbc="F F F"
C        0.15100000       1.60460000       0.14190000
C        0.06890000       0.08150000       0.02500000
C        0.54770000      -0.66280000       1.29260000
C        0.34760000      -2.18760000       1.15920000
O        0.52390000      -2.85360000       2.39550000
C        1.72280000      -3.43890000       2.63680000
N        1.92440000      -4.00330000       3.74380000
C        1.95220000      -0.36010000       1.58470000
N        3.06900000      -0.13840000       1.78490000
H        1.18050000       1.93490000       0.30870000
H       -0.21140000       2.07990000      -0.77370000
H       -0.45940000       1.97080000       0.97410000
H       -0.96710000      -0.22420000      -0.16130000
H        0.65890000      -0.26150000      -0.83290000
H       -0.04810000      -0.33140000       2.15210000
H       -0.68380000      -2.37630000       0.84830000
H        1.01820000      -2.59300000       0.39090000
H        2.42300000      -3.36200000       1.79520000
H        2.86130000      -4.39990000       3.76690000
