16
Properties=species:S:1:pos:R:3 gdb_32278=T pbc="F F F"
O        0.00480000       1.45340000       0.04200000
C        0.01780000       0.04000000      -0.01390000
C       -1.39700000      -0.47470000      -0.00400000
C       -2.50890000       0.35720000       0.05240000
C       -3.78600000      -0.20100000       0.05770000
N       -4.01440000      -1.51430000       0.01090000
C       -2.94980000      -2.31510000      -0.04330000
C       -1.63610000      -1.85200000      -0.05310000
O       -0.55430000      -2.68280000      -0.10890000
H        0.91520000       1.76050000       0.03300000
H        0.52440000      -0.32730000      -0.92100000
H        0.56200000      -0.39670000       0.83910000
H       -2.36900000       1.42980000       0.09160000
H       -4.66290000       0.43960000       0.10160000
H       -3.14210000      -3.38850000      -0.08140000
H       -0.85870000      -3.59650000      -0.13840000
