16
Properties=species:S:1:pos:R:3 gdb_35694=T pbc="F F F"
N       -0.18370000      -1.08140000      -0.37850000
C       -0.15390000       0.05270000      -0.15530000
C       -0.08840000       1.47220000       0.13460000
C        0.03880000       1.89150000       1.62330000
O        1.26460000       2.59530000       1.35340000
C        1.29330000       2.17820000      -0.01300000
C        2.54950000       1.47730000      -0.55890000
O        2.63370000       2.41750000      -1.65120000
C        1.57440000       3.22400000      -1.10340000
H       -0.88570000       1.99490000      -0.39880000
H       -0.74990000       2.55500000       1.99060000
H        0.18130000       1.06090000       2.32150000
H        3.40060000       1.55350000       0.12940000
H        2.43660000       0.44380000      -0.90320000
H        0.77520000       3.41610000      -1.82960000
H        1.93480000       4.17470000      -0.68930000
