15
Properties=species:S:1:pos:R:3 gdb_61200=T pbc="F F F"
O        0.33570000       1.43640000       0.00480000
C        0.08970000       0.04770000       0.04170000
C        0.64920000      -0.66630000      -1.21230000
C        0.12140000      -0.04880000      -2.42390000
N       -0.32100000       0.49600000      -3.34230000
C        0.83250000      -0.44970000       1.29960000
O        2.18840000      -0.07470000       1.26540000
C        0.15340000       0.04380000       2.51800000
N       -0.37500000       0.41950000       3.47360000
H       -0.10320000       1.82140000      -0.76260000
H       -0.98230000      -0.17040000       0.14040000
H        1.74090000      -0.58860000      -1.20600000
H        0.38390000      -1.72900000      -1.19750000
H        0.80950000      -1.54450000       1.32550000
H        2.20330000       0.87860000       1.10090000
