18
Properties=species:S:1:pos:R:3 gdb_118395=T pbc="F F F"
C       -0.28830000       1.78510000       0.15970000
C       -0.41890000       0.32640000       0.55800000
O       -1.24230000      -0.32300000      -0.41320000
C       -1.34610000      -1.71600000      -0.30530000
C       -2.46450000      -2.20450000       0.64310000
C       -2.11770000      -2.12190000       2.05700000
N       -1.82890000      -2.05810000       3.17450000
C       -1.60000000      -2.23870000      -1.72240000
O       -2.19420000      -3.25230000      -1.97420000
H        0.34110000       2.31530000       0.88010000
H        0.16270000       1.87650000      -0.83240000
H       -1.26950000       2.26730000       0.13790000
H        0.56680000      -0.16350000       0.58500000
H       -0.86070000       0.23340000       1.55780000
H       -0.38500000      -2.15720000       0.01550000
H       -3.36580000      -1.61260000       0.45300000
H       -2.69500000      -3.24290000       0.38240000
H       -1.16520000      -1.58340000      -2.50560000
