23
Properties=species:S:1:pos:R:3 gdb_82222=T pbc="F F F"
C       -0.05510000       1.58100000       0.02190000
C        0.05080000       0.05070000       0.01320000
C        0.71190000      -0.50440000      -1.25860000
C        2.09170000      -0.09830000      -1.73650000
C        1.89110000      -1.43400000      -1.06960000
C        2.27290000      -1.67240000       0.38590000
C        2.28000000      -0.36090000       1.22020000
C        0.73470000      -0.50370000       1.28260000
C        0.96590000      -2.03910000       1.15680000
H        0.93280000       2.05280000       0.03930000
H       -0.57550000       1.94250000      -0.87110000
H       -0.60840000       1.93240000       0.90000000
H       -0.97360000      -0.34760000       0.02350000
H        0.01280000      -0.74560000      -2.05380000
H        2.25380000      -0.09180000      -2.80950000
H        2.63580000       0.67960000      -1.21490000
H        1.94470000      -2.31790000      -1.69950000
H        3.13850000      -2.33350000       0.47520000
H        2.72880000      -0.53610000       2.20190000
H        2.71840000       0.54680000       0.80040000
H        0.22550000      -0.13620000       2.17840000
H        0.21480000      -2.63120000       0.62500000
H        1.17150000      -2.49480000       2.12950000
