17
Properties=species:S:1:pos:R:3 gdb_60883=T pbc="F F F"
C        0.53000000       1.52960000      -0.02360000
C        0.06350000       0.06430000       0.12400000
C        0.13440000      -0.62450000      -1.22700000
O        0.58580000      -1.71040000      -1.48480000
C        0.74640000      -0.59300000       1.30990000
C        1.50990000      -1.86700000       1.29740000
O        2.18260000      -0.61640000       1.33830000
C        0.17460000      -0.23050000       2.65140000
O       -0.89710000       0.29390000       2.81880000
H        1.61160000       1.57210000      -0.17540000
H        0.03760000       2.01130000      -0.87360000
H        0.28000000       2.09780000       0.87490000
H       -1.00990000       0.09450000       0.36800000
H       -0.31700000       0.00000000      -2.03230000
H        1.57070000      -2.45430000       2.21400000
H        1.56720000      -2.40870000       0.36130000
H        0.84880000      -0.49530000       3.49500000
