19
Properties=species:S:1:pos:R:3 gdb_82228=T pbc="F F F"
O       -0.06600000       1.45580000      -0.03340000
C        0.00900000       0.03290000      -0.04180000
C       -1.39760000      -0.55370000       0.01050000
C       -2.48470000      -0.13610000      -0.94790000
C       -1.77830000      -1.45350000      -1.15010000
C       -0.64780000      -1.61130000      -2.15030000
C       -0.00390000      -0.27620000      -2.58310000
C        0.77790000      -0.48410000      -1.27900000
O        0.57350000      -1.91740000      -1.38780000
H        0.82960000       1.80050000       0.05110000
H        0.54790000      -0.32930000       0.84650000
H       -1.72690000      -0.84960000       1.00010000
H       -3.50230000      -0.17430000      -0.57390000
H       -2.30170000       0.68620000      -1.62700000
H       -2.32940000      -2.36140000      -0.92750000
H       -0.84690000      -2.36980000      -2.91020000
H        0.63440000      -0.41670000      -3.45670000
H       -0.60930000       0.62090000      -2.70140000
H        1.83870000      -0.21280000      -1.23880000
