21
Properties=species:S:1:pos:R:3 gdb_62135=T pbc="F F F"
C       -0.23030000       1.56720000       0.00650000
C       -0.00220000       0.05130000       0.01730000
C        0.71860000      -0.44980000      -1.24670000
C       -0.05730000      -0.21290000      -2.55470000
C        0.59710000      -0.91760000      -3.72160000
O        0.96410000      -0.38430000      -4.73610000
C        0.80040000      -0.38310000       1.27050000
C        0.11750000      -0.10770000       2.52850000
C       -0.46690000       0.11810000       3.55470000
H        0.72040000       2.10330000      -0.10270000
H       -0.88220000       1.87210000      -0.81650000
H       -0.69460000       1.89300000       0.94090000
H       -0.97990000      -0.44660000       0.07060000
H        1.70280000       0.03270000      -1.31950000
H        0.91120000      -1.52630000      -1.14140000
H       -1.07140000      -0.62660000      -2.44860000
H       -0.14520000       0.84800000      -2.79980000
H        0.73090000      -2.01610000      -3.57280000
H        1.01490000      -1.45790000       1.20760000
H        1.77620000       0.12220000       1.26530000
H       -0.97200000       0.31430000       4.46780000
