16
Properties=species:S:1:pos:R:3 gdb_14955=T pbc="F F F"
O       -0.60760000       0.70770000       0.67900000
C        0.15840000       0.90860000      -0.22200000
C        1.40710000       1.78190000      -0.09640000
O        2.50230000       0.95360000      -0.38540000
C        3.72910000       1.68150000      -0.36140000
C        3.66580000       2.85720000      -1.33890000
C        2.40500000       3.67300000      -1.04490000
O        1.26000000       2.82210000      -1.02660000
H        0.02950000       0.47560000      -1.23600000
H        1.48590000       2.18620000       0.92910000
H        3.92250000       2.04460000       0.66140000
H        4.51420000       0.96900000      -0.62460000
H        4.55970000       3.48360000      -1.24530000
H        3.62030000       2.47510000      -2.36390000
H        2.49910000       4.18550000      -0.07330000
H        2.21470000       4.42760000      -1.81150000
