18
Properties=species:S:1:pos:R:3 gdb_6589=T pbc="F F F"
O       -0.07640000       1.38340000       0.00450000
C       -0.02050000      -0.00770000       0.02030000
C        0.29730000      -0.83890000       1.30830000
C       -0.44520000      -1.93520000       0.51080000
O       -0.94670000      -3.02950000       1.21060000
C       -1.35100000      -0.79090000      -0.05560000
C        0.51940000      -2.19790000      -0.66740000
C        0.84320000      -0.71890000      -1.04540000
H        0.82530000       1.72240000       0.02930000
H        1.34240000      -1.01730000       1.57900000
H       -0.27800000      -0.49310000       2.16870000
H       -1.35320000      -3.63220000       0.57810000
H       -2.07710000      -0.44350000       0.68120000
H       -1.81700000      -0.92100000      -1.03710000
H        1.39770000      -2.76710000      -0.35010000
H        0.03340000      -2.74500000      -1.48280000
H        0.53270000      -0.45210000      -2.05960000
H        1.90710000      -0.47950000      -0.93920000
