14
Properties=species:S:1:pos:R:3 gdb_11100=T pbc="F F F"
O        0.12420000       0.03510000       0.58560000
C        0.10220000       1.22460000       0.35340000
N        1.14760000       1.91350000      -0.16350000
C        2.51620000       1.46450000      -0.40180000
C        2.87980000       2.94650000      -0.76410000
C        1.41790000       3.33850000      -0.35240000
C        3.95260000       3.56280000      -0.00580000
N        4.80230000       4.05440000       0.60420000
H       -0.78040000       1.87360000       0.52620000
H        3.01410000       1.07630000       0.49150000
H        2.62370000       0.74600000      -1.21810000
H        3.06270000       3.08370000      -1.83100000
H        0.83390000       3.81970000      -1.14230000
H        1.35890000       3.93610000       0.56280000
