16
Properties=species:S:1:pos:R:3 gdb_66953=T pbc="F F F"
O       -0.01540000       1.37180000       0.10310000
C        0.05040000       0.00450000      -0.00540000
C       -0.90990000      -0.91360000       0.76280000
O       -1.06200000      -2.12370000       0.02090000
C        0.37550000      -2.03800000      -0.23020000
C        0.56030000      -1.05590000       0.98980000
C        0.48580000      -0.84020000      -1.18350000
C        0.31060000      -0.70340000      -2.63350000
N        1.66220000      -0.59770000      -2.00570000
H        0.88080000       1.72170000       0.16870000
H       -1.71650000      -0.55560000       1.38940000
H        0.86780000      -2.98890000      -0.41670000
H        1.20180000      -1.02840000       1.85930000
H        0.16950000      -1.58010000      -3.25910000
H       -0.15420000       0.20550000      -3.00680000
H        1.93070000       0.38410000      -1.95340000
