21
Properties=species:S:1:pos:R:3 gdb_67220=T pbc="F F F"
C       -0.01700000       1.59910000      -0.15300000
C        0.01120000       0.11270000      -0.01180000
C        0.07880000      -1.02600000      -0.96880000
O        1.20370000      -1.66500000      -0.36160000
C        0.86490000      -0.91600000       0.83780000
C       -0.46240000      -1.57170000       1.34760000
C       -0.46230000      -3.09040000       1.49390000
C       -0.97620000      -0.88130000       2.61190000
C       -1.06380000      -0.97080000       0.06650000
H        0.96390000       1.99270000      -0.44260000
H       -0.73600000       1.89600000      -0.92440000
H       -0.31460000       2.09200000       0.77960000
H       -0.05060000      -1.09250000      -2.04160000
H        1.71690000      -0.72740000       1.49090000
H        0.09910000      -3.39980000       2.38360000
H       -1.48560000      -3.46790000       1.60390000
H       -0.00890000      -3.56270000       0.62070000
H       -0.94820000       0.20930000       2.52320000
H       -2.01140000      -1.17060000       2.82330000
H       -0.37190000      -1.16700000       3.48090000
H       -2.10740000      -0.90050000      -0.21980000
