18
Properties=species:S:1:pos:R:3 gdb_97063=T pbc="F F F"
C       -0.07280000       1.46610000      -0.07820000
N       -0.26580000       0.05540000       0.20840000
C        0.54440000      -0.54130000       0.96580000
O        1.64880000       0.00010000       1.56280000
C        2.20610000      -0.92050000       2.52650000
C        1.73490000      -2.32150000       2.11740000
C        1.54130000      -3.33350000       3.24160000
C        0.45810000      -2.00620000       1.33990000
O       -0.43740000      -2.76200000       1.07810000
H        0.59780000       1.97910000       0.62030000
H        0.33650000       1.57160000      -1.09070000
H       -1.04910000       1.96040000      -0.07870000
H        3.28960000      -0.79040000       2.50990000
H        1.83540000      -0.65360000       3.52440000
H        2.43770000      -2.72320000       1.37270000
H        0.88440000      -2.93260000       4.02030000
H        1.07570000      -4.23960000       2.84620000
H        2.49460000      -3.60390000       3.70470000
