22
Properties=species:S:1:pos:R:3 gdb_36734=T pbc="F F F"
N       -0.13150000      -1.17800000      -0.20760000
C       -0.09800000      -0.02550000      -0.12920000
C       -0.03100000       1.43080000      -0.02940000
C        1.41930000       1.95620000       0.02220000
C        1.49600000       3.48240000       0.09170000
C        0.89430000       4.11180000       1.37130000
C        1.63250000       5.46720000       1.57070000
C        2.75910000       5.49960000       0.50440000
C        2.93210000       4.03520000       0.07370000
H       -0.55830000       1.86120000      -0.88920000
H       -0.58320000       1.74070000       0.86450000
H        1.92520000       1.52070000       0.89250000
H        1.95450000       1.59540000      -0.86330000
H        0.96820000       3.89560000      -0.78120000
H       -0.19040000       4.23660000       1.30680000
H        1.08450000       3.44860000       2.22430000
H        0.95600000       6.31900000       1.46080000
H        2.04770000       5.52970000       2.58070000
H        2.44440000       6.09840000      -0.35800000
H        3.68370000       5.94580000       0.88010000
H        3.54160000       3.49130000       0.80820000
H        3.42020000       3.92440000      -0.89940000
