15
Properties=species:S:1:pos:R:3 gdb_129936=T pbc="F F F"
N        0.07340000       1.42070000       0.21570000
C        0.01410000       0.03110000       0.03290000
C       -1.06670000      -0.82860000       0.08240000
N       -0.56970000      -2.08740000      -0.07580000
N        0.76750000      -2.11520000      -0.23330000
C        1.11190000      -0.83870000      -0.16050000
O        2.39120000      -0.38440000      -0.28670000
C        3.41500000      -1.22620000       0.02990000
N        4.59470000      -0.85430000      -0.20650000
H        0.98460000       1.77960000      -0.04190000
H       -0.63760000       1.92120000      -0.30250000
H       -2.11980000      -0.64290000       0.21840000
H       -1.08120000      -2.94990000      -0.12470000
H        3.07250000      -2.16290000       0.47560000
H        5.24810000      -1.57080000       0.10390000
