18
Properties=species:S:1:pos:R:3 gdb_30439=T pbc="F F F"
C       -0.08040000       1.44920000       0.15230000
N       -0.05290000       0.00270000       0.04110000
C        0.54380000      -0.66860000       0.93690000
O        1.16280000      -0.01150000       2.01180000
C        1.81510000      -0.68030000       2.99790000
C        2.38200000       0.25070000       4.01740000
C        1.90430000      -2.02530000       2.99780000
C        1.29220000      -2.76290000       1.92540000
C        0.64080000      -2.11210000       0.93880000
H        0.92890000       1.88490000       0.15420000
H       -0.63040000       1.86260000      -0.69660000
H       -0.57050000       1.78540000       1.07710000
H        3.08480000       0.95000000       3.55090000
H        1.58720000       0.85080000       4.47430000
H        2.90170000      -0.30370000       4.80060000
H        2.43070000      -2.52810000       3.79770000
H        1.36010000      -3.84560000       1.91890000
H        0.16370000      -2.61840000       0.11020000
