16
Properties=species:S:1:pos:R:3 gdb_34570=T pbc="F F F"
C        0.00820000      -1.19430000      -0.14910000
C       -0.04540000       0.00300000      -0.06820000
C       -0.09760000       1.42280000       0.03060000
N       -1.14050000       2.13610000      -0.14850000
C       -0.72730000       3.52720000       0.04910000
C       -1.05960000       4.10230000       1.45580000
C        0.43020000       3.89920000       1.88270000
C        0.77710000       3.43280000       0.44850000
O        1.09060000       2.03080000       0.33370000
H        0.04670000      -2.25340000      -0.22430000
H       -1.02520000       4.13620000      -0.80780000
H       -1.37440000       5.14820000       1.43480000
H       -1.80030000       3.52190000       2.00850000
H        0.95000000       4.80440000       2.20450000
H        0.59580000       3.11960000       2.62920000
H        1.53670000       3.99500000      -0.09550000
