18
Properties=species:S:1:pos:R:3 gdb_75357=T pbc="F F F"
C        0.07530000       1.44320000       0.14730000
C       -0.08890000      -0.03520000       0.01170000
N        0.02880000      -0.68100000      -1.08040000
C       -0.14010000      -2.11490000      -0.79160000
C       -0.54690000      -2.21620000       0.70190000
C        0.34970000      -2.97720000       1.71580000
N        0.81460000      -1.97540000       2.69660000
C        0.39320000      -0.84150000       2.30510000
N       -0.41980000      -0.80700000       1.15740000
H        0.90190000       1.68550000       0.82520000
H        0.28620000       1.87510000      -0.83080000
H       -0.83070000       1.89530000       0.56310000
H       -0.90320000      -2.53890000      -1.45020000
H        0.80050000      -2.63800000      -1.01200000
H       -1.59040000      -2.52910000       0.79790000
H       -0.20200000      -3.76770000       2.23160000
H        1.22400000      -3.44820000       1.24690000
H        0.61750000       0.08880000       2.81790000
