15
Properties=species:S:1:pos:R:3 gdb_49781=T pbc="F F F"
O       -0.06930000      -0.03340000       0.08480000
C       -0.01010000       1.17460000       0.05070000
N        1.16010000       1.88520000      -0.01920000
C        2.44470000       1.31890000      -0.05900000
C        3.40250000       2.24240000      -0.04290000
C        2.80760000       3.63020000       0.02690000
C        1.26220000       3.35660000      -0.03090000
C        0.63550000       3.93520000      -1.22760000
N        0.14130000       4.40530000      -2.16000000
H       -0.89670000       1.83550000       0.07120000
H        2.50710000       0.24210000      -0.09350000
H        4.46420000       2.04800000      -0.06790000
H        3.07060000       4.15220000       0.95320000
H        3.12140000       4.27090000      -0.80200000
H        0.75700000       3.77650000       0.84440000
