15
Properties=species:S:1:pos:R:3 gdb_62491=T pbc="F F F"
C        0.09910000       1.53850000      -0.04090000
C       -0.13120000       0.01350000      -0.01300000
O       -1.49590000      -0.31160000      -0.00340000
C        0.60780000      -0.62620000      -1.19010000
O        0.25810000      -0.69800000      -2.33290000
C        1.92600000      -1.15870000      -0.61870000
O        1.78390000      -1.13400000       0.81070000
C        0.59600000      -0.59690000       1.18540000
O        0.19060000      -0.61800000       2.31170000
H        1.16100000       1.80020000      -0.09690000
H       -0.41550000       1.94800000      -0.91320000
H       -0.31670000       1.97850000       0.86990000
H       -1.76490000      -0.32620000       0.92590000
H        2.11520000      -2.18440000      -0.94630000
H        2.77150000      -0.52950000      -0.91680000
