14
Properties=species:S:1:pos:R:3 gdb_64549=T pbc="F F F"
O       -0.17980000       1.33900000       0.05300000
C       -0.09810000      -0.03450000       0.03590000
C        1.02390000      -0.55500000      -0.78890000
O        1.75530000       0.19710000      -1.39080000
C       -0.47420000      -0.84960000       1.25540000
N       -1.54960000      -0.20310000       2.00330000
C       -2.39920000      -0.18600000       0.87140000
O       -3.49900000       0.24340000       0.70370000
C       -1.36220000      -0.92310000       0.02300000
H        0.51110000       1.64490000      -0.55720000
H        1.15150000      -1.65490000      -0.81880000
H        0.14020000      -1.61560000       1.71140000
H       -1.39020000       0.63620000       2.55050000
H       -1.52650000      -1.71800000      -0.69160000
