16
Properties=species:S:1:pos:R:3 gdb_37818=T pbc="F F F"
C       -0.02900000       1.48050000      -0.22050000
C        1.43490000       1.87360000       0.02350000
C        2.18310000       0.92360000       0.60950000
C        1.32920000      -0.26350000       0.87260000
N        0.53070000      -0.53760000       2.13130000
C       -0.30760000      -1.14820000       1.05220000
C        0.90120000      -1.59090000       0.13950000
O        0.42250000      -0.90910000      -1.04330000
C        0.05230000      -0.00510000       0.05030000
H       -0.70170000       2.00420000       0.46800000
H       -0.36440000       1.69300000      -1.24060000
H        1.80580000       2.85680000      -0.25140000
H        3.22670000       1.03500000       0.87770000
H        0.97910000      -1.27040000       2.68630000
H       -1.25550000      -1.65630000       1.23720000
H        1.39050000      -2.56090000       0.02790000
