25
Properties=species:S:1:pos:R:3 gdb_57540=T pbc="F F F"
C        0.34630000       1.51360000       0.27570000
C        0.08490000       0.01910000       0.01680000
C        0.55210000      -0.81250000       1.22470000
C       -1.41560000      -0.21320000      -0.22950000
C        0.84390000      -0.42700000      -1.24190000
O        2.23650000      -0.22690000      -1.05700000
C        3.00350000      -0.62870000      -2.14560000
C        3.19660000       0.31760000      -3.30440000
C        4.32110000       0.05130000      -2.32110000
H        1.41420000       1.70440000       0.40600000
H       -0.00710000       2.12610000      -0.56180000
H       -0.17700000       1.84850000       1.17770000
H        0.02800000      -0.50260000       2.13500000
H        0.35070000      -1.87880000       1.06980000
H        1.62610000      -0.69360000       1.38700000
H       -1.77570000       0.37040000      -1.08430000
H       -1.63010000      -1.26930000      -0.42810000
H       -2.00070000       0.08530000       0.64660000
H        0.64270000      -1.49300000      -1.44250000
H        0.49590000       0.14270000      -2.11860000
H        2.93820000      -1.69490000      -2.36910000
H        3.26820000      -0.08870000      -4.30740000
H        2.70480000       1.28160000      -3.23620000
H        4.55320000       0.83880000      -1.61340000
H        5.17160000      -0.53970000      -2.64130000
