15
Properties=species:S:1:pos:R:3 gdb_4172=T pbc="F F F"
O       -0.12880000       1.30560000       0.22200000
N       -0.00930000      -0.08830000       0.31220000
C       -1.09710000      -0.66140000       0.00890000
C       -2.50240000      -0.24580000      -0.39520000
C       -2.92610000      -1.75140000      -0.30290000
C       -1.45490000      -2.11660000      -0.02780000
C       -0.65550000      -3.26280000      -0.47990000
O       -1.01820000      -3.09680000       0.89370000
H        0.74460000       1.60420000       0.49850000
H       -2.99460000       0.43470000       0.30380000
H       -2.56010000       0.18900000      -1.39670000
H       -3.57220000      -1.97030000       0.54990000
H       -3.36350000      -2.18280000      -1.20520000
H       -1.14750000      -4.08440000      -0.99980000
H        0.40010000      -3.11970000      -0.70490000
