19
Properties=species:S:1:pos:R:3 gdb_61613=T pbc="F F F"
C       -0.43720000       1.64660000      -0.05330000
C        0.32580000       0.32120000      -0.03790000
O        1.32330000       0.43280000       0.97060000
C        2.26080000      -0.60340000       0.97850000
C        3.11260000      -0.71730000       2.20800000
C        2.07500000      -1.77540000       1.92260000
O        0.97930000      -1.79810000       2.77750000
C       -0.57960000      -0.82010000       0.17790000
C       -1.33630000      -1.74190000       0.34090000
H        0.26320000       2.46360000      -0.24210000
H       -1.20190000       1.63870000      -0.83350000
H       -0.91910000       1.81050000       0.91330000
H        0.81710000       0.17580000      -1.01440000
H        2.71990000      -0.79460000       0.00750000
H        4.16710000      -0.94420000       2.10040000
H        2.85590000      -0.04200000       3.01630000
H        2.42020000      -2.75020000       1.57530000
H        0.18370000      -1.77610000       2.23030000
H       -2.00670000      -2.55650000       0.47020000
