19
Properties=species:S:1:pos:R:3 gdb_67619=T pbc="F F F"
C       -0.09560000       1.51820000       0.04490000
C        0.02770000       0.02490000       0.02000000
C       -0.03800000      -0.85390000      -1.22050000
C        1.02160000      -1.94040000      -1.18320000
C        1.07090000      -2.15290000       0.31800000
C        0.79700000      -0.83910000       1.05850000
C       -0.27330000      -1.91040000       0.94690000
O       -0.82010000      -2.77740000       1.86760000
C       -1.04180000      -1.04570000      -0.09280000
H        0.86970000       2.00360000      -0.14490000
H       -0.79720000       1.86520000      -0.72100000
H       -0.46020000       1.87670000       1.01490000
H       -0.37280000      -0.41780000      -2.15580000
H        0.71400000      -2.84420000      -1.72180000
H        1.98020000      -1.60130000      -1.59220000
H        1.72600000      -2.87640000       0.78840000
H        1.37710000      -0.48550000       1.90060000
H       -1.34580000      -2.26340000       2.49060000
H       -2.11540000      -0.94650000      -0.19220000
