17
Properties=species:S:1:pos:R:3 gdb_117016=T pbc="F F F"
O       -0.25350000       1.45770000       0.01240000
C       -0.01330000       0.05810000       0.00260000
C       -1.37290000      -0.62540000       0.01170000
C       -1.27550000      -2.13880000       0.00270000
O       -0.21620000      -2.73210000      -0.01080000
C       -2.54440000      -2.84070000       0.01130000
C       -3.60670000      -3.41320000       0.01860000
C       -4.90030000      -4.08020000       0.02710000
O       -4.72090000      -5.48640000       0.01740000
H        0.59760000       1.90490000       0.00630000
H        0.55050000      -0.25380000      -0.88790000
H        0.56690000      -0.26330000       0.87910000
H       -1.94980000      -0.31330000       0.89180000
H       -1.96600000      -0.30400000      -0.85420000
H       -5.45650000      -3.74570000       0.91860000
H       -5.47350000      -3.73570000      -0.84980000
H       -5.59500000      -5.89000000       0.02530000
