17
Properties=species:S:1:pos:R:3 gdb_74309=T pbc="F F F"
C       -0.02240000       1.48870000       0.06670000
C        0.00330000      -0.00110000       0.00060000
C       -0.01210000      -0.76960000      -1.08960000
N        0.02220000      -2.14910000      -0.76280000
C        0.01540000      -3.14790000      -1.70720000
O       -0.02040000      -2.95130000      -2.90060000
C        0.06330000      -2.30400000       0.65350000
N        0.10160000      -3.35520000       1.35750000
C        0.05280000      -0.89110000       1.22110000
H        0.86490000       1.87960000       0.58070000
H       -0.05840000       1.93190000      -0.93180000
H       -0.89330000       1.84720000       0.62990000
H       -0.04540000      -0.50600000      -2.13540000
H        0.04630000      -4.15640000      -1.26050000
H        0.10230000      -4.21360000       0.80790000
H        0.94430000      -0.72430000       1.83760000
H       -0.80930000      -0.75650000       1.88540000
