20
Properties=species:S:1:pos:R:3 gdb_104490=T pbc="F F F"
C       -0.73440000       1.39810000      -0.25870000
C       -0.08680000       0.03800000       0.03940000
C        0.52860000      -0.60730000      -1.18570000
C        1.78220000       0.05050000      -1.68600000
O        2.40050000       0.89090000      -1.08220000
C        0.52120000      -2.06930000      -1.49600000
C       -0.74760000      -2.77020000      -1.01870000
C       -1.51650000      -1.71820000      -1.85470000
N       -0.23790000      -1.10330000      -2.37410000
H        0.00620000       2.10270000      -0.64430000
H       -1.53520000       1.30960000      -0.99990000
H       -1.16440000       1.82550000       0.65190000
H        0.72300000       0.17740000       0.76320000
H       -0.81330000      -0.62920000       0.51030000
H        2.10690000      -0.31560000      -2.68440000
H        1.41380000      -2.57850000      -1.85040000
H       -0.83940000      -3.77840000      -1.42620000
H       -0.91950000      -2.81170000       0.06000000
H       -2.06720000      -2.14380000      -2.69520000
H       -2.16710000      -1.02030000      -1.32280000
