12
Properties=species:S:1:pos:R:3 gdb_11166=T pbc="F F F"
N       -0.03470000       1.28400000      -0.00170000
C       -0.03590000       0.03080000      -0.03700000
C       -1.24050000      -0.87690000      -0.15720000
O       -0.67420000      -2.14930000      -0.47370000
C        0.62440000      -2.13410000       0.04040000
O        1.07440000      -0.78680000       0.01790000
C        0.67280000      -2.65190000       1.43620000
N        0.70500000      -3.07370000       2.51050000
H        0.90770000       1.66020000       0.10560000
H       -1.79990000      -0.90890000       0.78680000
H       -1.90760000      -0.57710000      -0.96540000
H        1.27240000      -2.74140000      -0.59690000
