16
Properties=species:S:1:pos:R:3 gdb_39084=T pbc="F F F"
C       -0.06780000       1.58610000       0.15790000
C        1.43690000       1.37960000      -0.02530000
O        1.79330000       0.57550000       1.13450000
C        0.70330000      -0.40070000       1.23690000
C       -0.03960000       0.01340000      -0.01650000
N       -1.10830000      -0.60260000      -0.77350000
C       -0.78870000      -0.31960000      -1.97510000
O        0.39430000       0.33040000      -2.23890000
C        1.13930000       0.22480000      -1.00700000
H       -0.40160000       1.99140000       1.11380000
H       -0.55660000       2.07950000      -0.68080000
H        2.18170000       2.16210000      -0.15270000
H        1.11210000      -1.41480000       1.19790000
H        0.15920000      -0.25650000       2.17550000
H       -1.38100000      -0.53630000      -2.85690000
H        1.92630000      -0.52500000      -1.12280000
