19
Properties=species:S:1:pos:R:3 gdb_86313=T pbc="F F F"
O        0.52610000       0.97060000      -0.73530000
C        0.22050000      -0.14570000       0.06560000
C        0.02700000       0.04010000       1.59760000
C       -1.19620000      -0.91180000       1.49710000
O       -2.32970000      -0.70350000       2.29830000
C       -1.24560000      -0.61690000      -0.02540000
C       -2.31660000       0.33210000      -0.60010000
C       -2.59550000      -0.82530000      -1.57850000
O       -1.59540000      -1.65480000      -0.94660000
H        1.46360000       1.16620000      -0.64420000
H        0.88270000      -0.99510000      -0.15210000
H        0.84180000      -0.23430000       2.26960000
H       -0.28910000       1.06780000       1.80850000
H       -0.90580000      -1.95570000       1.64990000
H       -2.54370000       0.23500000       2.27580000
H       -3.13720000       0.55410000       0.08520000
H       -1.92910000       1.25020000      -1.03950000
H       -3.59300000      -1.27500000      -1.51970000
H       -2.35150000      -0.62390000      -2.62790000
