17
Properties=species:S:1:pos:R:3 gdb_7318=T pbc="F F F"
C        0.06100000       1.44220000       0.02200000
N       -0.03000000      -0.00330000       0.04950000
C        0.53110000      -0.63800000      -0.89190000
N        0.50350000      -2.02880000      -0.97010000
C       -0.20790000      -2.79070000       0.04840000
C        1.15780000      -2.63430000      -2.04870000
N        1.11910000      -4.01240000      -2.04340000
O        1.68410000      -2.00150000      -2.94430000
H        0.62920000       1.83570000      -0.83530000
H       -0.94590000       1.87550000      -0.00420000
H        0.53510000       1.80010000       0.94370000
H        1.08120000      -0.19320000      -1.72370000
H       -0.90340000      -3.49670000      -0.41390000
H        0.48280000      -3.33730000       0.70330000
H       -0.76100000      -2.07640000       0.65720000
H        1.02540000      -4.51710000      -1.17790000
H        1.73250000      -4.42530000      -2.72790000
