18
Properties=species:S:1:pos:R:3 gdb_82282=T pbc="F F F"
C       -0.33590000       1.53890000       0.05920000
C        0.02680000       0.05000000      -0.01020000
C        0.69800000      -0.33470000      -1.32180000
C        2.07160000       0.07300000      -1.72640000
N        1.76580000      -1.33810000      -1.37590000
C        2.28650000      -1.77620000      -0.15050000
C        1.82270000      -1.43050000       1.06310000
C        0.78460000      -0.41280000       1.24380000
O        0.50820000       0.04320000       2.33810000
H        0.56060000       2.16240000      -0.01690000
H       -1.01150000       1.81460000      -0.75620000
H       -0.82100000       1.75590000       1.01220000
H       -0.91190000      -0.52290000       0.03240000
H       -0.00290000      -0.45890000      -2.14530000
H        2.30020000       0.25880000      -2.77140000
H        2.67690000       0.62040000      -1.00890000
H        3.13560000      -2.44780000      -0.25750000
H        2.26650000      -1.83800000       1.96440000
