21
Properties=species:S:1:pos:R:3 gdb_62882=T pbc="F F F"
C       -0.08020000       1.57450000       0.00730000
C       -0.03860000       0.04360000       0.00440000
C       -1.46840000      -0.46020000      -0.21970000
C        1.12970000      -0.67090000      -0.78500000
C        2.11550000      -0.19820000       0.33560000
C        0.83850000      -0.68250000       1.10090000
C        0.90120000      -1.87930000       0.13770000
C        0.34110000      -3.21740000       0.04290000
O        1.75290000      -2.99520000       0.26230000
H        0.88450000       2.05820000       0.15950000
H       -0.48380000       1.93900000      -0.94420000
H       -0.75310000       1.92830000       0.79680000
H       -1.86000000      -0.07860000      -1.16970000
H       -1.55290000      -1.54660000      -0.23860000
H       -2.12960000      -0.08790000       0.57130000
H        1.29850000      -0.67450000      -1.86300000
H        3.00480000      -0.81500000       0.46920000
H        2.36230000       0.85990000       0.38020000
H        0.67410000      -0.69940000       2.17940000
H       -0.19480000      -3.65100000       0.88690000
H        0.08560000      -3.63970000      -0.92870000
