22
Properties=species:S:1:pos:R:3 gdb_116774=T pbc="F F F"
C        0.10680000       0.91050000      -0.52610000
O       -0.34240000      -0.01110000       0.45800000
C       -1.20480000      -0.95590000       0.01930000
N       -1.60830000      -1.84620000       0.80760000
C       -2.58040000      -2.84700000       0.39590000
C       -2.80400000      -3.13040000      -1.10390000
C       -1.57520000      -3.77660000      -1.75740000
C       -4.04690000      -4.02250000      -1.25860000
O       -4.39420000      -4.28520000      -2.60920000
H        0.74140000       1.63000000      -0.00730000
H        0.69550000       0.41260000      -1.30680000
H       -0.73030000       1.44440000      -0.99310000
H       -1.48580000      -0.83860000      -1.03620000
H       -2.29130000      -3.78670000       0.88640000
H       -3.53950000      -2.56750000       0.85590000
H       -3.03540000      -2.19300000      -1.62670000
H       -0.67500000      -3.17250000      -1.61950000
H       -1.37550000      -4.76130000      -1.31610000
H       -1.72120000      -3.90630000      -2.83470000
H       -3.90100000      -4.96020000      -0.69650000
H       -4.91700000      -3.51860000      -0.82390000
H       -3.74520000      -4.89640000      -2.96940000
