18
Properties=species:S:1:pos:R:3 gdb_10870=T pbc="F F F"
C       -0.14520000       1.55960000      -0.01050000
C        0.03070000       0.04680000       0.00940000
C        1.21270000      -0.63900000      -0.77360000
C        2.16170000      -0.16410000       0.37770000
C        0.88000000      -0.64870000       1.15410000
C        0.62180000      -0.65460000       2.63300000
C        0.93540000      -1.82300000       0.16230000
O        0.82490000      -3.01100000       0.14460000
H        0.78270000       2.11830000       0.12820000
H       -0.57930000       1.87350000      -0.96560000
H       -0.83870000       1.86740000       0.77970000
H       -0.94110000      -0.42960000      -0.15930000
H        1.40130000      -0.62620000      -1.84470000
H        3.07960000      -0.73510000       0.53310000
H        2.35860000       0.90630000       0.41650000
H        0.60860000       0.36110000       3.04260000
H       -0.34300000      -1.12190000       2.85600000
H        1.39540000      -1.22100000       3.16160000
