19
Properties=species:S:1:pos:R:3 gdb_64461=T pbc="F F F"
C        0.09410000       1.57060000      -0.08620000
C        0.12540000       0.04960000      -0.01020000
O       -1.20470000      -0.49180000       0.11040000
C        0.71990000      -0.59590000      -1.26770000
C        0.93740000      -2.09510000      -1.07720000
O        1.81730000      -2.33460000       0.01260000
C        1.26850000      -1.92220000       1.24770000
C        0.84990000      -0.45200000       1.26130000
O        0.97910000       0.23810000       2.24540000
H        1.10000000       1.97740000      -0.22530000
H       -0.53270000       1.88410000      -0.92570000
H       -0.30310000       1.99330000       0.84060000
H       -1.62860000      -0.05620000       0.85920000
H        0.04410000      -0.40660000      -2.10960000
H        1.68260000      -0.12370000      -1.49170000
H       -0.02480000      -2.60310000      -0.91470000
H        1.41670000      -2.53510000      -1.95560000
H        0.37950000      -2.52410000       1.50680000
H        2.02610000      -2.07750000       2.01860000
