21
Properties=species:S:1:pos:R:3 gdb_52679=T pbc="F F F"
C        0.24320000       1.39500000       0.12870000
C        0.06720000      -0.04780000       0.03550000
C       -0.07440000      -1.24210000      -0.03330000
C       -0.26320000      -2.69080000      -0.13880000
C       -1.75430000      -3.05670000      -0.29280000
C        0.55750000      -3.26440000      -1.29010000
C        2.02690000      -3.57600000      -1.10310000
C        1.02100000      -4.69200000      -1.24650000
O        0.65050000      -5.44000000      -0.12190000
H        0.95810000       1.75940000      -0.61780000
H       -0.70200000       1.92480000      -0.03500000
H        0.61900000       1.68940000       1.11520000
H        0.09630000      -3.15990000       0.78470000
H       -1.86880000      -4.14390000      -0.30190000
H       -2.34110000      -2.64660000       0.53360000
H       -2.15840000      -2.65200000      -1.22610000
H        0.26260000      -2.88870000      -2.26620000
H        2.71950000      -3.38160000      -1.91470000
H        2.43360000      -3.41360000      -0.10980000
H        1.01270000      -5.25180000      -2.18180000
H        1.39840000      -5.99090000       0.13020000
