17
Properties=species:S:1:pos:R:3 gdb_38212=T pbc="F F F"
C       -0.04270000       1.53340000       0.10230000
N        1.46720000       1.25890000       0.04690000
C        1.12700000       0.07660000       0.99930000
C        0.00760000      -0.00840000      -0.06620000
N       -1.06150000      -0.89450000      -0.37150000
C       -1.21510000      -1.00210000      -1.63330000
O       -0.54500000      -0.41900000      -2.65910000
C        0.54510000       0.52740000      -2.43480000
C        1.13180000       0.23140000      -1.07000000
H       -0.37420000       1.92740000       1.06540000
H       -0.42500000       2.14630000      -0.71500000
H        1.88670000      -0.70880000       1.00700000
H        0.87130000       0.40670000       2.00860000
H       -1.98310000      -1.65310000      -2.04710000
H        1.24210000       0.34980000      -3.25630000
H        0.14030000       1.53640000      -2.54330000
H        1.89730000      -0.54660000      -1.13240000
