17
Properties=species:S:1:pos:R:3 gdb_2297=T pbc="F F F"
C       -0.39610000       1.36710000       0.32970000
O       -0.42990000      -0.03120000       0.48570000
C       -0.85940000      -0.70550000      -0.67460000
C       -0.84550000      -2.19420000      -0.37940000
C       -1.98370000      -2.76350000       0.49330000
C       -2.34420000      -3.57840000      -0.76550000
O       -1.28580000      -2.95460000      -1.52700000
H       -0.05100000       1.79450000       1.27430000
H        0.29470000       1.67130000      -0.47250000
H       -1.39190000       1.77650000       0.09640000
H       -1.87650000      -0.39120000      -0.96520000
H       -0.19470000      -0.49570000      -1.52990000
H        0.16250000      -2.49030000      -0.06080000
H       -1.67010000      -3.34310000       1.36190000
H       -2.72620000      -2.02600000       0.80340000
H       -2.19920000      -4.66260000      -0.68250000
H       -3.33030000      -3.38750000      -1.20530000
