16
Properties=species:S:1:pos:R:3 gdb_44973=T pbc="F F F"
N        0.08160000       1.00460000      -0.82890000
C        0.03830000      -0.01620000      -0.09300000
C       -1.22790000      -0.73560000       0.34470000
C       -0.73160000      -1.98730000       1.05950000
C        0.17640000      -2.90530000       0.23330000
C        0.78090000      -1.83630000       1.08420000
O        1.14490000      -0.63950000       0.43820000
C       -1.47020000      -2.52090000       2.16160000
C       -2.10080000      -2.96500000       3.08460000
H        1.04650000       1.30170000      -0.98160000
H       -1.79270000      -0.09830000       1.03080000
H       -1.86760000      -0.94090000      -0.51640000
H        0.26240000      -3.92970000       0.57540000
H        0.19270000      -2.76810000      -0.84330000
H        1.38930000      -2.05230000       1.95250000
H       -2.65700000      -3.35730000       3.89970000
