16
Properties=species:S:1:pos:R:3 gdb_10947=T pbc="F F F"
O       -0.14080000       1.44410000       0.00950000
C       -0.08080000       0.06430000       0.02630000
C       -0.32750000      -0.77750000      -1.19080000
C       -1.24780000      -0.91330000       0.00450000
C       -0.56690000      -1.79050000       1.07330000
C        0.61410000      -0.74580000       1.12370000
C       -1.32000000      -1.85150000       2.37450000
O       -1.57220000      -2.86060000       2.98100000
H        0.56090000       1.77510000      -0.56180000
H       -0.76610000      -0.23300000      -2.02110000
H        0.34000000      -1.58830000      -1.47550000
H       -2.31200000      -0.72910000      -0.07460000
H       -0.30260000      -2.80410000       0.76130000
H        1.61580000      -1.13350000       0.91510000
H        0.63000000      -0.20290000       2.07300000
H       -1.63880000      -0.85310000       2.75910000
