23
Properties=species:S:1:pos:R:3 gdb_36969=T pbc="F F F"
C       -0.18820000       1.50110000       0.13450000
O       -0.15520000       0.09480000       0.00350000
C       -1.44050000      -0.48050000      -0.11060000
C       -1.30390000      -1.96640000      -0.29570000
C       -1.12550000      -2.86060000       0.90290000
C       -2.42570000      -2.87590000       0.13890000
C        1.21460000       2.01660000       0.30000000
C        2.07640000       2.25490000      -0.91180000
C        1.54370000       3.42570000      -0.12460000
H       -0.65530000       1.96090000      -0.75520000
H       -0.80840000       1.78610000       1.00290000
H       -2.04050000      -0.26750000       0.79260000
H       -1.98080000      -0.03400000      -0.96430000
H       -0.76690000      -2.25070000      -1.19580000
H       -0.46310000      -3.71410000       0.81290000
H       -1.11640000      -2.39280000       1.88180000
H       -3.29470000      -2.42410000       0.60660000
H       -2.65550000      -3.73680000      -0.47880000
H        1.71880000       1.64450000       1.18700000
H        3.13360000       2.02440000      -0.84350000
H        1.64060000       2.05600000      -1.88520000
H        0.75300000       4.02020000      -0.57130000
H        2.23250000       3.99730000       0.48730000
