13
Properties=species:S:1:pos:R:3 gdb_133373=T pbc="F F F"
N       -0.03420000       1.38180000       0.15000000
C       -0.03250000       0.00230000       0.03970000
N       -1.15580000      -0.65300000       0.02510000
N       -1.07840000      -2.00250000       0.00730000
C        0.05140000      -2.81540000      -0.02100000
O       -0.03830000      -4.03120000      -0.04090000
C        1.28840000      -2.04030000      -0.02890000
C        1.22690000      -0.69710000       0.00350000
F        2.32340000       0.06320000      -0.01180000
H        0.75510000       1.84400000      -0.27580000
H       -0.92380000       1.80450000      -0.07400000
H       -1.97120000      -2.47520000       0.00600000
H        2.22920000      -2.57320000      -0.06130000
