16
Properties=species:S:1:pos:R:3 gdb_87471=T pbc="F F F"
C       -0.06010000       1.53160000      -0.07720000
C       -0.00720000       0.02910000       0.03880000
N        1.32800000      -0.61040000      -0.16260000
C        0.68710000      -0.66870000       1.12800000
C        1.20410000      -0.25090000       2.51610000
O       -0.07760000      -0.77120000       3.07040000
C        0.26380000      -1.81180000       2.06460000
C        1.69390000      -1.72110000       2.69140000
O        2.56230000      -2.37830000       3.15540000
H        0.84350000       1.98160000       0.34180000
H       -0.13430000       1.83550000      -1.12630000
H       -0.92950000       1.92930000       0.45620000
H       -0.86170000      -0.49800000      -0.38410000
H        1.24750000      -1.49350000      -0.66110000
H        1.57560000       0.69970000       2.88930000
H       -0.43280000      -2.63550000       1.92260000
