19
Properties=species:S:1:pos:R:3 gdb_52554=T pbc="F F F"
C        0.50970000       0.68710000      -1.03880000
C        0.22490000      -0.58040000      -0.38830000
C       -0.02830000      -1.63160000       0.14890000
C       -0.33910000      -2.87830000       0.82160000
O       -1.45900000      -3.12570000       1.21900000
C        0.81250000      -3.86530000       0.97140000
C        1.03630000      -4.64350000      -0.31560000
C        1.90150000      -4.08650000      -1.41830000
C        2.38040000      -5.26300000      -0.60530000
H        1.57050000       0.94810000      -0.96420000
H        0.25080000       0.63900000      -2.10240000
H       -0.07460000       1.49850000      -0.59210000
H        1.72830000      -3.32600000       1.23940000
H        0.55170000      -4.54600000       1.78800000
H        0.16870000      -5.21580000      -0.63200000
H        1.59750000      -4.25630000      -2.44500000
H        2.37600000      -3.12580000      -1.25080000
H        3.17940000      -5.09510000       0.10960000
H        2.40280000      -6.24130000      -1.07250000
