16
Properties=species:S:1:pos:R:3 gdb_13084=T pbc="F F F"
O        0.10210000       1.47100000       0.00310000
C        0.07970000       0.06400000       0.01250000
C        0.21140000      -0.58760000       1.41300000
N       -1.26810000      -0.66740000       1.46430000
C       -1.34290000      -0.58110000      -0.00870000
C       -2.50490000       0.24370000      -0.56970000
C       -3.79320000      -0.38220000      -0.28420000
N       -4.79690000      -0.90380000      -0.04710000
H       -0.35020000       1.77930000       0.79690000
H        0.77100000      -0.26190000      -0.76530000
H        0.72620000      -1.55770000       1.37250000
H        0.67000000       0.02650000       2.19590000
H       -1.66860000      -1.49660000       1.88860000
H       -1.31340000      -1.55890000      -0.51190000
H       -2.48920000       1.24830000      -0.13820000
H       -2.39290000       0.35440000      -1.65430000
