20
Properties=species:S:1:pos:R:3 gdb_104899=T pbc="F F F"
C       -0.05980000       1.51610000      -0.00220000
C        0.03590000      -0.00000000       0.01860000
C       -1.16690000      -0.68260000      -0.60840000
C        1.38000000      -0.65160000      -0.14260000
C        0.70360000      -0.68790000       1.22370000
C        1.31520000       0.08880000       2.39160000
O        2.38620000      -0.60530000       2.99720000
C        0.16900000      -1.95210000       1.66530000
N       -0.23420000      -2.95390000       2.08370000
H        0.84540000       2.00670000       0.36070000
H       -0.22240000       1.85530000      -1.03120000
H       -0.90520000       1.86940000       0.59820000
H       -1.26130000      -0.38160000      -1.65750000
H       -1.08730000      -1.77160000      -0.57430000
H       -2.09160000      -0.39890000      -0.09430000
H        1.44530000      -1.58020000      -0.69840000
H        2.26200000      -0.02310000      -0.21030000
H        1.73590000       1.02880000       2.03040000
H        0.52770000       0.33220000       3.12030000
H        2.03710000      -1.41730000       3.38240000
