19
Properties=species:S:1:pos:R:3 gdb_117516=T pbc="F F F"
C       -0.01300000       1.51990000      -0.02980000
C       -0.13500000       0.00890000      -0.11460000
O        0.84180000      -0.45790000      -1.03550000
C        0.87130000      -1.84900000      -1.18750000
C       -0.32630000      -2.38980000      -1.84620000
C       -1.30160000      -2.81760000      -2.40450000
C        2.13870000      -2.22300000      -2.01190000
C        2.44870000      -3.70420000      -2.08380000
O        2.81800000      -1.37470000      -2.52170000
H        0.98740000       1.80740000       0.30480000
H       -0.18990000       1.97280000      -1.00910000
H       -0.74670000       1.91910000       0.67700000
H        0.03300000      -0.45340000       0.87280000
H       -1.14100000      -0.28520000      -0.44730000
H        0.97550000      -2.34610000      -0.20400000
H       -2.16550000      -3.19460000      -2.89480000
H        1.56500000      -4.27580000      -2.38000000
H        3.26340000      -3.87190000      -2.78880000
H        2.75130000      -4.06370000      -1.09290000
