19
Properties=species:S:1:pos:R:3 gdb_6720=T pbc="F F F"
C       -0.03730000       1.53570000       0.11430000
C       -0.02350000       0.01060000       0.02680000
O        0.69520000      -0.56730000       1.11720000
C       -1.43660000      -0.57600000      -0.08310000
C       -1.42340000      -2.09090000      -0.21750000
O       -2.78000000      -2.54050000      -0.27480000
C       -2.97710000      -3.86440000      -0.14570000
N       -4.13760000      -4.34790000      -0.26470000
H        0.98250000       1.91850000       0.20730000
H       -0.49790000       1.98060000      -0.77330000
H       -0.61100000       1.86890000       0.98840000
H        0.55270000      -0.28850000      -0.85850000
H        0.29440000      -0.24560000       1.93290000
H       -2.02060000      -0.30270000       0.80600000
H       -1.95400000      -0.14010000      -0.94510000
H       -0.89540000      -2.39210000      -1.13320000
H       -0.90400000      -2.54080000       0.63630000
H       -2.05720000      -4.42640000       0.07120000
H       -4.10750000      -5.35530000      -0.12210000
