17
Properties=species:S:1:pos:R:3 gdb_5109=T pbc="F F F"
C        0.03810000       1.43850000      -0.00700000
N        0.03750000      -0.00890000      -0.01110000
C        0.00840000      -0.82860000      -1.13800000
C       -0.02600000      -0.26370000      -2.51770000
C        0.01860000      -2.12780000      -0.69860000
C        0.05440000      -2.12320000       0.73070000
C        0.06480000      -0.80340000       1.10450000
O        0.09550000      -0.18650000       2.31840000
H        0.91180000       1.83480000      -0.53560000
H       -0.86450000       1.83580000      -0.48370000
H        0.06840000       1.78460000       1.02570000
H        0.85170000       0.35630000      -2.74540000
H       -0.04550000      -1.08110000      -3.24240000
H       -0.91230000       0.35870000      -2.70050000
H        0.00200000      -2.99990000      -1.33500000
H        0.07040000      -2.97580000       1.39200000
H        0.11440000      -0.86850000       2.99560000
