18
Properties=species:S:1:pos:R:3 gdb_92130=T pbc="F F F"
O       -0.00170000       1.20050000      -0.70870000
C       -0.00510000      -0.07780000      -0.12450000
C        0.18560000      -0.18030000       1.41730000
N       -1.16850000      -0.79940000       1.59360000
C       -2.22840000       0.22810000       1.87650000
C       -2.58310000       0.28260000       0.38790000
C       -3.89830000       0.34510000      -0.25220000
O       -2.96160000       1.42810000      -0.33670000
C       -1.41980000      -0.66290000       0.09210000
H        0.91260000       1.48620000      -0.80460000
H        0.64170000      -0.77140000      -0.67930000
H        0.98680000      -0.84910000       1.74690000
H        0.30130000       0.79000000       1.91260000
H       -3.01340000      -0.14750000       2.54030000
H       -1.84070000       1.16980000       2.28040000
H       -4.07580000      -0.19160000      -1.18350000
H       -4.78330000       0.53690000       0.35400000
H       -1.65910000      -1.56930000      -0.47070000
