16
Properties=species:S:1:pos:R:3 gdb_47623=T pbc="F F F"
O        0.02510000      -0.03650000       0.10020000
C        0.00150000       1.16770000      -0.01490000
C       -1.30860000       1.95360000      -0.10160000
N       -1.23260000       3.18370000      -0.88670000
C       -0.14860000       4.04840000      -0.43100000
C        1.15330000       3.34240000      -0.17200000
C        1.24900000       2.00320000      -0.02640000
C        2.49440000       1.34320000       0.16950000
C        3.54520000       0.77950000       0.33180000
H       -2.07950000       1.29220000      -0.50460000
H       -1.61050000       2.20990000       0.92510000
H       -1.06620000       2.94010000      -1.85870000
H        0.00380000       4.84570000      -1.16760000
H       -0.46490000       4.56060000       0.49340000
H        2.04990000       3.95340000      -0.09430000
H        4.46730000       0.27360000       0.47820000
