17
Properties=species:S:1:pos:R:3 gdb_52277=T pbc="F F F"
N       -0.56020000       1.09930000      -0.41520000
C       -0.43050000      -0.15550000      -0.39660000
O       -0.76200000      -0.84510000       0.71780000
C       -0.79090000      -2.26420000       0.61490000
C       -2.17100000      -2.75020000       0.19370000
N       -2.51890000      -2.50130000      -1.23290000
C       -2.91060000      -3.91820000      -1.47120000
C       -2.33580000      -4.25830000      -0.08780000
O       -2.07740000      -5.25840000       0.50900000
H       -0.23490000       1.46550000      -1.30750000
H       -0.05280000      -0.79160000      -1.20640000
H       -0.03600000      -2.61520000      -0.09960000
H       -0.54500000      -2.65600000       1.60560000
H       -2.91750000      -2.39050000       0.91600000
H       -3.27280000      -1.83750000      -1.36060000
H       -3.99040000      -4.11220000      -1.52880000
H       -2.42330000      -4.39140000      -2.33040000
