19
Properties=species:S:1:pos:R:3 gdb_92899=T pbc="F F F"
C       -0.07910000       1.39880000      -0.10670000
N       -0.00130000      -0.04720000      -0.03880000
C       -1.28750000      -0.73050000       0.05740000
C       -1.12770000      -2.21440000       0.12310000
C        0.08190000      -2.76880000       0.09200000
N        1.25650000      -2.03210000      -0.00130000
C        2.53650000      -2.72190000      -0.02880000
C        1.24080000      -0.63730000      -0.06960000
O        2.27630000       0.00640000      -0.15160000
H        0.92930000       1.80060000      -0.17570000
H       -0.66090000       1.71240000      -0.98420000
H       -0.57460000       1.80020000       0.78770000
H       -1.82780000      -0.35360000       0.94430000
H       -1.91270000      -0.44030000      -0.80600000
H       -2.01500000      -2.82890000       0.19640000
H        0.22910000      -3.84200000       0.13800000
H        2.59890000      -3.39640000      -0.89070000
H        3.31740000      -1.96820000      -0.10450000
H        2.68520000      -3.30720000       0.88620000
