12
Properties=species:S:1:pos:R:3 gdb_12661=T pbc="F F F"
O        0.17320000       1.29120000       0.46170000
C        0.01860000      -0.03460000       0.05570000
C       -1.44350000      -0.46190000      -0.15760000
O       -1.39930000      -1.51440000      -1.15420000
C       -0.27910000      -1.44450000      -1.91590000
O       -0.05850000      -2.13920000      -2.85930000
C        0.59980000      -0.33310000      -1.31050000
O        1.50950000       0.24390000      -1.83860000
H        0.93350000       1.64470000      -0.02200000
H        0.48880000      -0.74050000       0.76500000
H       -1.92610000      -0.87450000       0.72780000
H       -2.02850000       0.38060000      -0.53850000
