20
Properties=species:S:1:pos:R:3 gdb_30724=T pbc="F F F"
C        0.25540000       1.54450000      -0.26560000
C       -0.11540000       0.10320000       0.13040000
C        0.60360000      -0.39850000       1.34150000
C        0.12770000      -0.77850000       2.58480000
N       -1.21070000      -0.85650000       3.06600000
C        1.24350000      -1.17590000       3.38380000
N        1.12360000      -1.57070000       4.72930000
C        2.37210000      -1.02930000       2.61090000
N        1.96710000      -0.56240000       1.37290000
H        1.32230000       1.63340000      -0.49560000
H       -0.30290000       1.86450000      -1.15140000
H        0.03720000       2.24000000       0.55020000
H       -1.19180000       0.05450000       0.33010000
H        0.05880000      -0.56070000      -0.72890000
H       -1.87930000      -0.94290000       2.30960000
H       -1.46920000      -0.03690000       3.60840000
H        0.19690000      -1.95450000       4.88600000
H        1.81760000      -2.25690000       4.99850000
H        3.41090000      -1.21640000       2.82720000
H        2.57970000      -0.41270000       0.59220000
