14
Properties=species:S:1:pos:R:3 gdb_124805=T pbc="F F F"
C        0.06750000       1.20390000      -0.59700000
C        0.03740000      -0.04160000       0.30210000
O        0.51320000       0.20390000       1.60240000
C       -1.34580000      -0.62590000       0.34600000
N       -2.09430000      -0.68570000       1.38370000
O       -3.30550000      -1.25670000       0.91040000
C       -3.19060000      -1.50990000      -0.41720000
O       -4.00020000      -1.98560000      -1.13720000
O       -1.91540000      -1.09750000      -0.78650000
H        1.08840000       1.59020000      -0.62990000
H       -0.25690000       0.96540000      -1.61370000
H       -0.58920000       1.98230000      -0.19530000
H        0.70120000      -0.80360000      -0.12470000
H       -0.16430000       0.68360000       2.09440000
