20
Properties=species:S:1:pos:R:3 gdb_120021=T pbc="F F F"
C        0.26700000       0.77070000       0.63100000
O       -0.36990000       0.40180000      -0.58250000
C        0.43860000      -0.32810000      -1.47210000
C        0.50170000      -1.82760000      -1.14020000
C        1.08490000      -2.81850000      -2.18930000
C        1.73100000      -2.29410000      -3.45380000
O        2.08980000      -3.25090000      -1.20590000
C        1.61850000      -2.36530000      -0.26450000
N        2.02380000      -2.13000000       0.90010000
H        0.59290000      -0.09810000       1.21450000
H        1.14560000       1.40570000       0.43800000
H       -0.46470000       1.34710000       1.20240000
H       -0.02640000      -0.21640000      -2.45870000
H        1.45010000       0.10240000      -1.52770000
H       -0.48560000      -2.12900000      -0.77960000
H        0.42040000      -3.65910000      -2.41120000
H        2.41320000      -1.46580000      -3.24470000
H        2.30160000      -3.09210000      -3.93800000
H        0.96740000      -1.94940000      -4.15860000
H        2.82640000      -2.71360000       1.14170000
