18
Properties=species:S:1:pos:R:3 gdb_65491=T pbc="F F F"
O        0.40910000       1.36630000      -0.61180000
C        0.01110000       0.16100000      -0.00430000
C        0.12710000       0.05150000       1.55860000
C       -1.33590000      -0.40540000       1.58500000
C       -1.83610000      -1.69420000       2.16970000
C       -2.30900000      -0.36630000       2.72040000
C       -1.53650000       0.05100000       0.13550000
C        0.61450000      -0.99280000      -0.68770000
N        1.12350000      -1.88270000      -1.22240000
H        1.37190000       1.38810000      -0.66080000
H        0.88460000      -0.62790000       1.95530000
H        0.27210000       1.05400000       1.97230000
H       -2.53460000      -2.28350000       1.58420000
H       -1.15100000      -2.28270000       2.77140000
H       -1.94480000      -0.05800000       3.69530000
H       -3.32810000      -0.05820000       2.50900000
H       -1.96370000       1.05440000       0.05320000
H       -2.04630000      -0.62400000      -0.55400000
