18
Properties=species:S:1:pos:R:3 gdb_47903=T pbc="F F F"
O        0.13730000      -0.00940000       0.65370000
C        0.16270000       1.07070000       0.12560000
O       -0.93660000       1.46770000      -0.60170000
C       -1.31780000       2.84560000      -0.77770000
C       -1.13560000       3.33240000      -2.22140000
C        0.31480000       3.66100000      -2.61720000
N        1.25030000       2.62560000      -2.15170000
C        1.71130000       2.76240000      -0.83640000
C        1.31080000       2.00430000       0.19550000
H       -2.38130000       2.87480000      -0.52130000
H       -0.78000000       3.48360000      -0.07110000
H       -1.53360000       2.55480000      -2.88500000
H       -1.76440000       4.21870000      -2.37110000
H        0.39070000       3.76440000      -3.70520000
H        0.62830000       4.61520000      -2.17980000
H        0.83450000       1.71110000      -2.28930000
H        2.48000000       3.52280000      -0.70310000
H        1.84900000       2.01460000       1.13590000
