21
Properties=species:S:1:pos:R:3 gdb_102029=T pbc="F F F"
C        0.01310000       1.49670000       0.05220000
C       -0.02650000      -0.02730000      -0.06030000
N       -1.39370000      -0.57890000      -0.01610000
C       -1.99960000      -0.85250000      -1.22690000
O       -3.11930000      -1.26660000      -1.42180000
C       -1.98630000      -0.75640000       1.25960000
N       -1.28100000      -0.40520000       2.26300000
C       -3.38280000      -1.34830000       1.31710000
C       -3.91990000      -1.53560000       2.73640000
H        1.04930000       1.84600000       0.00230000
H       -0.54400000       1.96860000      -0.76370000
H       -0.41280000       1.81830000       1.00410000
H        0.42240000      -0.35160000      -1.00330000
H        0.53520000      -0.47950000       0.75690000
H       -1.30380000      -0.63960000      -2.06020000
H       -1.78080000      -0.58300000       3.13010000
H       -4.05550000      -0.71460000       0.73270000
H       -3.38310000      -2.30060000       0.77900000
H       -4.92340000      -1.96750000       2.69380000
H       -3.29420000      -2.21460000       3.32520000
H       -3.99430000      -0.58510000       3.27520000
