21
Properties=species:S:1:pos:R:3 gdb_71711=T pbc="F F F"
C       -0.01890000       1.48830000       0.00580000
C       -0.00280000      -0.01750000      -0.05490000
C        0.56240000      -0.82140000      -1.25620000
C       -0.31350000      -1.97590000      -0.71650000
C        0.14110000      -2.25010000       0.73430000
C        0.37330000      -0.81920000       1.21740000
C       -0.98680000      -1.46420000       1.36530000
C       -1.30800000      -0.93050000      -0.06780000
C       -2.64050000      -0.53230000      -0.62700000
H        0.99820000       1.89060000       0.09040000
H       -0.47210000       1.92310000      -0.89180000
H       -0.58520000       1.84310000       0.87490000
H        0.18770000      -0.43620000      -2.21110000
H        1.64510000      -0.97230000      -1.32030000
H       -0.64190000      -2.81180000      -1.33450000
H        0.68460000      -3.09790000       1.13060000
H        1.09430000      -0.56460000       1.98440000
H       -1.59190000      -1.66120000       2.24110000
H       -3.08040000       0.29730000      -0.06060000
H       -2.55430000      -0.21260000      -1.67220000
H       -3.34980000      -1.36780000      -0.59430000
