20
Properties=species:S:1:pos:R:3 gdb_113904=T pbc="F F F"
C        0.39180000       0.88180000      -0.44820000
O       -0.29180000      -0.12360000       0.28360000
C        0.48110000      -0.64310000       1.32460000
C        0.01820000      -1.95200000       1.89320000
C        1.27470000      -1.89740000       1.04460000
N        1.24240000      -2.41430000      -0.28730000
C        2.22040000      -3.22820000      -0.78350000
C        2.03790000      -3.63850000      -2.23710000
O        3.17050000      -3.60110000      -0.11830000
H        1.31370000       0.49760000      -0.90510000
H       -0.28720000       1.22380000      -1.23250000
H        0.65050000       1.73480000       0.19570000
H        0.90050000       0.10940000       1.99310000
H        0.11050000      -2.11940000       2.96040000
H       -0.86360000      -2.38640000       1.43420000
H        2.23810000      -2.05460000       1.51200000
H        0.49510000      -2.09300000      -0.88140000
H        1.13410000      -3.23420000      -2.70060000
H        2.91000000      -3.30880000      -2.80800000
H        2.00760000      -4.72990000      -2.29150000
