15
Properties=species:S:1:pos:R:3 gdb_26740=T pbc="F F F"
N        0.02100000       1.45730000      -0.11530000
C        0.03270000       0.05830000      -0.04160000
C       -1.05690000      -0.76330000      -0.03490000
O       -2.38670000      -0.46000000       0.02470000
N       -0.61200000      -2.09710000      -0.02790000
C       -1.41220000      -3.22810000       0.01680000
O       -0.98490000      -4.35630000       0.02930000
C        0.77680000      -2.08960000      -0.03440000
C        1.19610000      -0.79410000      -0.04770000
H        0.79170000       1.88010000       0.38600000
H       -0.85130000       1.84440000       0.22440000
H       -2.72360000      -0.29820000      -0.86560000
H       -2.48240000      -2.96770000       0.04120000
H        1.30930000      -3.02470000      -0.01980000
H        2.22290000      -0.45990000      -0.06210000
