12
Properties=species:S:1:pos:R:3 gdb_23943=T pbc="F F F"
C        0.07560000      -3.75280000      -0.01900000
C        0.05250000      -2.54480000      -0.01210000
C        0.02570000      -1.18770000      -0.00430000
C       -0.00770000       0.02430000       0.00280000
C       -0.04260000       1.43120000       0.01090000
C       -1.13290000       2.25180000       0.03030000
O       -0.69770000       3.53820000       0.03140000
C        0.65550000       3.43700000       0.01240000
N        1.10990000       2.23210000      -0.00040000
H        0.09780000      -4.81440000      -0.02510000
H       -2.19630000       2.08990000       0.04390000
H        1.20910000       4.36270000       0.00990000
