19
Properties=species:S:1:pos:R:3 gdb_69664=T pbc="F F F"
C        0.03670000       1.58840000       0.23370000
C       -0.05560000       0.11510000      -0.02650000
C       -0.87610000      -0.80320000       0.79070000
N        0.61120000      -0.92340000       0.91810000
C        0.92800000      -1.65220000      -0.29440000
N        1.00150000      -2.85890000      -0.65870000
C        0.79250000      -2.78290000      -2.13960000
C        0.02410000      -1.43260000      -2.41160000
C        0.59090000      -0.57670000      -1.26710000
H        1.03120000       1.97260000      -0.01570000
H       -0.69720000       2.13090000      -0.37360000
H       -0.16110000       1.81240000       1.28580000
H       -1.33980000      -0.39120000       1.68230000
H       -1.41380000      -1.63590000       0.34580000
H        1.75770000      -2.80970000      -2.66190000
H        0.22370000      -3.65890000      -2.46220000
H        0.20210000      -1.03270000      -3.41280000
H       -1.05240000      -1.59650000      -2.29570000
H        1.46080000       0.01400000      -1.57520000
