20
Properties=species:S:1:pos:R:3 gdb_93919=T pbc="F F F"
C        0.33140000       1.48350000       0.22510000
C        0.04780000       0.06160000      -0.26720000
C        1.07890000      -0.43360000      -1.32230000
C        1.67440000      -1.74930000      -0.74470000
C        1.49550000      -1.52660000       0.76580000
N        0.13590000      -0.96500000       0.80300000
H       -0.13100000      -0.60890000       1.71370000
H       -0.46710000      -2.45060000      -0.05350000
C        0.91220000      -2.98010000      -1.25400000
O        1.36040000      -3.72320000      -2.08720000
O       -0.31080000      -3.16120000      -0.72590000
H        1.33100000       1.55970000       0.66740000
H        0.27750000       2.19660000      -0.60400000
H       -0.40140000       1.79550000       0.97740000
H       -0.96670000       0.03290000      -0.67980000
H        0.62880000      -0.57970000      -2.30640000
H        1.87820000       0.30410000      -1.43800000
H        2.71540000      -1.88510000      -1.03590000
H        1.54400000      -2.44720000       1.35480000
H        2.26860000      -0.83840000       1.14040000
