23
Properties=species:S:1:pos:R:3 gdb_96249=T pbc="F F F"
C        0.11760000       1.55190000       0.12130000
C        0.02500000       0.03290000      -0.01010000
C        0.65860000      -0.46680000      -1.31830000
C        0.85070000      -1.99780000      -1.36870000
C       -0.41230000      -2.76450000      -1.08260000
C       -0.81330000      -3.14730000       0.13180000
C       -0.06100000      -2.90410000       1.41940000
C       -0.07810000      -1.44270000       1.91440000
O        0.68000000      -0.55390000       1.11800000
H        1.16550000       1.86130000       0.18830000
H       -0.33480000       2.04960000      -0.74280000
H       -0.39580000       1.89340000       1.02480000
H       -1.03140000      -0.26470000       0.00100000
H        0.02690000      -0.13240000      -2.15150000
H        1.63670000       0.01160000      -1.45290000
H        1.24160000      -2.27020000      -2.35560000
H        1.61920000      -2.25980000      -0.63500000
H       -1.05800000      -2.97510000      -1.93350000
H       -1.76830000      -3.66060000       0.22330000
H       -0.48570000      -3.52670000       2.21580000
H        0.98970000      -3.20220000       1.31800000
H       -1.11680000      -1.09020000       2.00660000
H        0.37170000      -1.40710000       2.91380000
