19
Properties=species:S:1:pos:R:3 gdb_56335=T pbc="F F F"
N        0.01190000       1.15470000       0.39270000
C       -0.32260000      -0.19420000       0.43010000
O       -0.08920000      -0.90670000       1.39010000
N       -0.91410000      -0.66230000      -0.72210000
C       -1.13430000      -2.09350000      -0.88330000
C       -2.41070000      -2.57180000      -0.18100000
C       -2.62530000      -4.08560000      -0.34320000
C       -3.81620000      -4.56480000       0.45370000
O       -4.76820000      -5.14330000      -0.00300000
H        0.23060000       1.51920000       1.30770000
H       -0.57130000       1.76590000      -0.15950000
H       -0.81770000      -0.10990000      -1.55800000
H       -1.19290000      -2.30270000      -1.95620000
H       -0.27460000      -2.64070000      -0.47930000
H       -2.32740000      -2.31640000       0.88040000
H       -3.27290000      -2.02620000      -0.58190000
H       -2.76920000      -4.36970000      -1.39040000
H       -1.73880000      -4.61460000       0.03710000
H       -3.75800000      -4.32820000       1.54250000
