18
Properties=species:S:1:pos:R:3 gdb_74117=T pbc="F F F"
C       -0.13120000       1.53800000       0.03780000
C       -0.03040000       0.05050000      -0.03500000
C       -0.11580000      -0.75110000      -1.10780000
C        0.11780000      -2.16960000      -0.71850000
O        0.38120000      -3.11380000      -1.42940000
N        0.07180000      -2.19890000       0.68800000
C        1.29820000      -2.59890000       1.43800000
C        1.53730000      -1.11370000       1.82030000
C        0.13390000      -0.81160000       1.18700000
H        0.76680000       1.96960000       0.49740000
H       -0.25910000       1.98420000      -0.95090000
H       -0.97840000       1.84160000       0.66510000
H       -0.25300000      -0.45350000      -2.13900000
H        1.06860000      -3.25630000       2.28040000
H        2.04440000      -3.07800000       0.79990000
H        1.63550000      -0.88990000       2.88340000
H        2.36030000      -0.64970000       1.27320000
H       -0.63090000      -0.58840000       1.94200000
