21
Properties=species:S:1:pos:R:3 gdb_103575=T pbc="F F F"
C        0.02200000       1.44560000      -0.00720000
O       -0.03470000       0.04170000       0.12490000
C       -1.31640000      -0.55590000       0.00830000
C       -2.30480000      -0.05650000       1.05350000
C       -1.79350000      -0.58460000      -1.48740000
C       -1.19620000      -1.99770000      -1.57670000
O       -0.86530000      -2.70440000      -2.48400000
C       -1.07810000      -2.10830000      -0.05020000
C        0.16160000      -2.74040000       0.56300000
H        1.08080000       1.71290000      -0.04700000
H       -0.46190000       1.79880000      -0.92940000
H       -0.43700000       1.96550000       0.84460000
H       -2.55650000       0.99900000       0.91150000
H       -3.23740000      -0.62560000       0.99550000
H       -1.89000000      -0.17720000       2.05960000
H       -2.88250000      -0.59220000      -1.60140000
H       -1.37190000       0.16240000      -2.16330000
H       -1.98650000      -2.60960000       0.31130000
H        1.06010000      -2.19980000       0.26140000
H        0.11130000      -2.73750000       1.65620000
H        0.25070000      -3.77800000       0.22800000
