19
Properties=species:S:1:pos:R:3 gdb_94185=T pbc="F F F"
N       -0.24350000       1.52600000      -0.10230000
C       -0.09270000       0.07460000      -0.00830000
C        0.16800000      -0.49740000       1.41520000
C       -1.34760000      -0.77870000       1.57200000
C       -1.48850000      -0.67440000       0.03740000
N       -2.62290000       0.08020000      -0.46370000
H       -1.23070000       1.73650000      -0.25780000
H       -2.86060000      -0.18480000      -1.41380000
H       -3.44290000      -0.08230000       0.10990000
C        0.85320000      -0.43580000      -1.10100000
O        1.32070000       0.52440000      -1.90260000
O        1.12860000      -1.60360000      -1.22880000
H        0.06380000       1.99950000       0.73900000
H        0.91100000       1.34730000      -1.53980000
H        0.75580000      -1.41440000       1.35100000
H        0.63730000       0.18430000       2.12950000
H       -1.65030000      -1.71720000       2.04100000
H       -1.86500000       0.04880000       2.06770000
H       -1.35820000      -1.65540000      -0.43140000
