21
Properties=species:S:1:pos:R:3 gdb_64290=T pbc="F F F"
C       -0.14440000       1.62270000       0.03140000
C        0.06790000       0.11150000       0.03210000
C       -1.27190000      -0.61290000      -0.18920000
O        0.97800000      -0.18620000      -1.04440000
C        1.57210000      -1.45300000      -0.79130000
C        1.73450000      -1.54390000       0.72430000
O        2.89190000      -0.83670000       1.21170000
C        2.07670000       0.21720000       1.76310000
C        0.77470000      -0.45820000       1.28000000
H        0.80560000       2.15630000       0.10060000
H       -0.63420000       1.93020000      -0.89700000
H       -0.78060000       1.92430000       0.86930000
H       -1.67840000      -0.34900000      -1.16960000
H       -1.15960000      -1.70070000      -0.14810000
H       -1.99940000      -0.32610000       0.57680000
H        0.94040000      -2.27620000      -1.16040000
H        2.53430000      -1.48940000      -1.30930000
H        1.68920000      -2.56660000       1.11250000
H        2.18330000       0.28350000       2.85280000
H        2.31610000       1.19030000       1.32130000
H        0.07890000      -0.74610000       2.06810000
