20
Properties=species:S:1:pos:R:3 gdb_70797=T pbc="F F F"
C        0.02830000       1.48840000      -0.02530000
C        0.02240000      -0.01640000       0.01680000
C       -1.30740000      -0.80430000      -0.12080000
C       -0.70900000      -2.08910000       0.46570000
O       -0.39500000      -1.66190000       1.82500000
C        0.64050000      -0.89360000       1.21340000
C        0.83650000      -1.87730000       0.04780000
C        1.77090000      -3.05060000      -0.01470000
N        0.95590000      -0.75590000      -0.89000000
H        1.04420000       1.87670000       0.09140000
H       -0.36640000       1.86100000      -0.97800000
H       -0.59590000       1.89740000       0.77600000
H       -2.12870000      -0.43920000       0.50070000
H       -1.63150000      -0.87250000      -1.16420000
H       -1.24130000      -3.03820000       0.41400000
H        1.39810000      -0.48130000       1.87770000
H        1.64980000      -3.67560000       0.87560000
H        1.56790000      -3.67430000      -0.89330000
H        2.81080000      -2.71580000      -0.07080000
H        0.58160000      -0.92310000      -1.82510000
