15
Properties=species:S:1:pos:R:3 gdb_16355=T pbc="F F F"
C       -0.06300000       1.57400000      -0.04570000
C        0.03700000       0.05920000       0.03830000
N        1.10540000      -0.56120000      -0.76840000
C        1.76690000      -1.18640000       0.26650000
O        2.72630000      -1.90480000       0.32420000
C        0.76770000      -0.56100000       1.25410000
C        0.96870000      -0.08110000       2.62010000
O        0.15560000      -1.22740000       2.32840000
H        0.90440000       2.04150000       0.16050000
H       -0.39350000       1.89180000      -1.04010000
H       -0.79450000       1.94730000       0.67840000
H       -0.93970000      -0.41110000      -0.12600000
H        1.27200000      -0.56700000      -1.76290000
H        1.90930000      -0.29450000       3.12410000
H        0.42780000       0.79800000       2.96630000
