13
Properties=species:S:1:pos:R:3 gdb_21529=T pbc="F F F"
N       -0.07550000       1.36710000      -0.13740000
C       -0.08430000      -0.01370000      -0.05000000
C       -1.12690000      -0.89000000       0.05750000
C       -2.60460000      -0.68380000       0.01960000
O       -2.95750000       0.32810000      -0.92050000
O       -0.60520000      -2.12500000       0.18140000
N        0.79240000      -1.98840000       0.14980000
N        1.06790000      -0.75870000       0.01250000
H        0.75710000       1.73140000      -0.57950000
H       -0.92530000       1.73420000      -0.54480000
H       -3.10730000      -1.63810000      -0.18490000
H       -2.97410000      -0.31900000       0.98470000
H       -2.74330000      -0.00430000      -1.79930000
