17
Properties=species:S:1:pos:R:3 gdb_112352=T pbc="F F F"
N        0.57220000       1.13780000       0.19960000
C        0.18630000      -0.16650000       0.06480000
C       -1.02410000      -0.75690000       0.10870000
C       -0.85710000      -2.19200000      -0.04630000
N       -1.74760000      -3.09260000      -0.05930000
O        0.50440000      -2.45520000      -0.19920000
C        1.23670000      -1.24010000      -0.11820000
C        2.09180000      -1.06150000      -1.38170000
O        2.90500000       0.10670000      -1.29330000
H        1.44800000       1.36790000      -0.25170000
H       -0.14800000       1.83770000       0.10680000
H       -1.99120000      -0.29240000       0.22430000
H       -1.32280000      -4.01070000      -0.19220000
H        1.90560000      -1.27930000       0.75650000
H        2.69240000      -1.96470000      -1.54600000
H        1.44040000      -0.92480000      -2.24940000
H        3.63690000      -0.08210000      -0.69670000
