21
Properties=species:S:1:pos:R:3 gdb_105537=T pbc="F F F"
C       -0.04520000       1.34740000      -0.28150000
O        0.08920000      -0.04380000      -0.08260000
C        0.71730000      -0.50210000       1.08870000
C        2.04880000       0.15020000       1.56620000
O        1.51610000       0.32510000       2.89400000
C        0.18420000      -0.03060000       2.47280000
C        0.81560000      -2.00820000       0.98670000
C       -0.26380000      -2.82280000       0.32370000
C        1.09200000      -2.68820000      -0.32850000
H        0.92300000       1.84610000      -0.41880000
H       -0.63000000       1.46930000      -1.19640000
H       -0.57830000       1.84320000       0.54000000
H        2.93340000      -0.49590000       1.55150000
H        2.29880000       1.10900000       1.09540000
H       -0.48520000       0.83850000       2.44340000
H       -0.26330000      -0.80400000       3.10680000
H        1.28150000      -2.44520000       1.86540000
H       -0.53330000      -3.77310000       0.77110000
H       -1.08370000      -2.28260000      -0.13360000
H        1.15140000      -2.06000000      -1.20890000
H        1.75570000      -3.54580000      -0.33080000
