19
Properties=species:S:1:pos:R:3 gdb_90373=T pbc="F F F"
C       -0.74680000       1.32580000       0.05210000
C        0.00420000       0.01610000      -0.04920000
O        1.15520000       0.08630000      -0.93840000
C        2.00040000      -0.59930000       0.01270000
C        2.80950000       0.44600000       0.80920000
O        3.88550000       0.94820000       0.67650000
C        1.69440000       0.56300000       1.87030000
C        0.87840000      -0.52830000       1.10950000
C        0.36990000      -1.70630000       1.90930000
H       -0.09660000       2.14370000       0.37190000
H       -1.16210000       1.59110000      -0.92520000
H       -1.57880000       1.23620000       0.75920000
H       -0.67690000      -0.77060000      -0.40760000
H        2.47670000      -1.49800000      -0.38960000
H        2.05130000       0.21800000       2.84730000
H        1.24680000       1.55020000       2.00510000
H       -0.44150000      -1.40310000       2.58180000
H       -0.01610000      -2.49560000       1.25610000
H        1.16230000      -2.14070000       2.52830000
