17
Properties=species:S:1:pos:R:3 gdb_56779=T pbc="F F F"
O       -0.14980000       1.39430000       0.12310000
C       -0.04020000      -0.00560000      -0.04770000
C        0.74540000      -0.37490000      -1.23630000
C        1.40440000      -0.67950000      -2.19390000
C        0.55680000      -0.63440000       1.19120000
C        0.76510000      -2.10820000       1.56580000
C        0.67070000      -1.67820000       3.07510000
C        0.46510000      -0.23240000       2.60310000
O        1.62000000       0.11000000       1.80800000
H        0.70080000       1.67720000       0.48720000
H       -1.06430000      -0.37960000      -0.17290000
H        1.97970000      -0.94120000      -3.04770000
H       -0.06340000      -2.75220000       1.26170000
H        1.70850000      -2.53850000       1.22540000
H       -0.20490000      -2.09590000       3.57690000
H        1.55850000      -1.83980000       3.69010000
H       -0.06440000       0.58720000       3.07360000
