18
Properties=species:S:1:pos:R:3 gdb_52236=T pbc="F F F"
N       -0.08560000       1.22420000      -0.21460000
C       -0.07040000      -0.03640000      -0.14990000
O       -1.20350000      -0.71260000       0.11500000
C       -1.08250000      -2.12520000       0.30380000
C       -2.44870000      -2.74290000       0.09220000
C       -3.05270000      -2.73050000      -1.36060000
C       -3.06600000      -4.26320000      -1.31420000
O       -1.71630000      -4.69300000      -1.09010000
C       -2.49340000      -4.28260000       0.04150000
H        0.84390000       1.56920000      -0.44470000
H        0.80250000      -0.68710000      -0.30320000
H       -0.36970000      -2.54960000      -0.41310000
H       -0.71760000      -2.32940000       1.32030000
H       -3.16270000      -2.33930000       0.81490000
H       -4.04760000      -2.28250000      -1.39120000
H       -2.43210000      -2.29370000      -2.14620000
H       -3.72920000      -4.96380000      -1.80750000
H       -2.60030000      -4.99230000       0.85390000
