15
Properties=species:S:1:pos:R:3 gdb_27357=T pbc="F F F"
C        0.11340000       1.46870000      -0.00160000
C       -0.03770000      -0.01380000      -0.03380000
C       -1.16520000      -0.72790000      -0.11590000
C       -1.12980000      -2.20120000      -0.12970000
O       -2.13380000      -2.87940000      -0.19600000
N        0.14840000      -2.77820000      -0.05490000
C        1.17320000      -2.01160000       0.00880000
N        2.44320000      -2.49000000       0.02810000
O        1.18200000      -0.64690000       0.03210000
H        0.72620000       1.81240000      -0.84210000
H       -0.86410000       1.94940000      -0.05570000
H        0.61530000       1.78610000       0.91900000
H       -2.12740000      -0.23600000      -0.16870000
H        2.53630000      -3.47720000       0.19930000
H        3.18200000      -1.88110000       0.33650000
