18
Properties=species:S:1:pos:R:3 gdb_71725=T pbc="F F F"
C       -0.08320000       1.51220000       0.06050000
C        0.02580000       0.02110000       0.01830000
C        0.81860000      -0.85170000      -0.97170000
C        1.05870000      -2.14670000      -0.28100000
C        0.92800000      -1.99820000       1.21360000
C       -0.12720000      -0.90550000       1.21960000
O       -0.61620000      -0.33840000       2.38710000
C       -1.01800000      -1.07600000       0.00630000
N       -0.24830000      -1.90650000      -0.98940000
H        0.89030000       1.97450000       0.26350000
H       -0.45450000       1.91630000      -0.88760000
H       -0.76710000       1.81750000       0.85700000
H        1.30560000      -0.51700000      -1.88140000
H        1.67570000      -2.91550000      -0.73160000
H        0.58090000      -2.91690000       1.70080000
H        1.86390000      -1.68010000       1.68480000
H       -1.23290000      -0.95890000       2.79140000
H       -2.10090000      -1.05750000       0.00400000
