19
Properties=species:S:1:pos:R:3 gdb_40970=T pbc="F F F"
C        0.03340000       1.51300000      -0.10150000
O        1.31370000       1.57140000       0.56120000
C        1.47920000       0.14310000       0.47050000
C        0.01440000      -0.02160000      -0.02940000
C       -0.96920000      -0.64610000       0.96030000
C       -0.84780000      -2.17020000       0.90160000
O       -0.98730000      -2.61880000      -0.44040000
C       -0.03190000      -2.01610000      -1.26660000
O       -0.14530000      -0.61270000      -1.30770000
H       -0.74660000       2.04460000       0.45550000
H        0.07620000       1.88490000      -1.13250000
H        2.22730000      -0.14150000      -0.28090000
H        1.74030000      -0.30230000       1.43760000
H       -0.78180000      -0.27640000       1.97390000
H       -1.98610000      -0.35610000       0.67300000
H        0.12780000      -2.49310000       1.30420000
H       -1.63200000      -2.66250000       1.48150000
H        0.98500000      -2.29800000      -0.93160000
H       -0.20540000      -2.37630000      -2.28200000
