20
Properties=species:S:1:pos:R:3 gdb_115145=T pbc="F F F"
C       -0.78790000       1.26390000       0.05310000
C       -0.01610000      -0.05300000       0.00310000
C        0.68650000      -0.46660000      -1.31270000
C        1.25150000       0.71150000      -2.10570000
O        1.90990000       0.17790000      -3.24760000
C        1.82720000      -1.39090000      -0.81680000
N        2.11820000      -0.85360000       0.50260000
C        1.10670000      -0.11820000       1.05330000
O        1.09440000       0.37440000       2.16160000
H       -0.15790000       2.11980000      -0.20570000
H       -1.64660000       1.25170000      -0.62490000
H       -1.14800000       1.42560000       1.07210000
H       -0.70750000      -0.86290000       0.27800000
H        0.01490000      -1.01690000      -1.97730000
H        0.43570000       1.38520000      -2.40300000
H        1.94890000       1.28900000      -1.47820000
H        2.30540000       0.90600000      -3.73510000
H        1.49560000      -2.43770000      -0.76530000
H        2.69490000      -1.34070000      -1.47850000
H        2.90880000      -1.13440000       1.06030000
