19
Properties=species:S:1:pos:R:3 gdb_13762=T pbc="F F F"
C       -0.01470000       1.42830000      -0.27400000
C        0.05770000      -0.02350000       0.21810000
C        0.68990000      -0.12680000       1.61250000
C       -1.32260000      -0.64720000       0.21480000
N       -1.85870000      -1.08150000      -1.07660000
C       -1.55660000      -2.10540000      -0.04330000
C       -0.48850000      -3.02990000      -0.30930000
C        0.39590000      -3.82340000      -0.49460000
H        0.98340000       1.87530000      -0.32210000
H       -0.46000000       1.47770000      -1.27200000
H       -0.62130000       2.04520000       0.40070000
H        0.67030000      -0.59670000      -0.48680000
H        0.09220000       0.41030000       2.35910000
H        0.77270000      -1.17010000       1.93220000
H        1.69360000       0.31000000       1.61850000
H       -2.02290000      -0.19210000       0.91770000
H       -2.86440000      -0.93870000      -1.12100000
H       -2.40620000      -2.54760000       0.47340000
H        1.17730000      -4.51990000      -0.67280000
