11
Properties=species:S:1:pos:R:3 gdb_2621=T pbc="F F F"
O        0.05400000      -0.14840000       0.11660000
C        0.04110000       1.01460000      -0.17580000
C        1.28650000       1.91040000      -0.11300000
C        1.32150000       2.89590000      -1.17700000
C        1.31440000       3.69820000      -2.08270000
C        1.31300000       4.60360000      -3.09820000
C        1.31100000       5.40700000      -3.99930000
H       -0.88490000       1.53660000      -0.49780000
H        1.26130000       2.41410000       0.86600000
H        2.17160000       1.26530000      -0.11540000
H        1.31020000       6.11330000      -4.79220000
