15
Properties=species:S:1:pos:R:3 gdb_29895=T pbc="F F F"
C       -0.43720000       1.39090000       0.02770000
N        0.01040000       0.00190000       0.02110000
C        0.30490000      -0.65700000      -1.13330000
N        0.70590000      -1.87310000      -1.26400000
C        0.86640000      -2.62870000      -0.10290000
O        1.23450000      -3.77680000      -0.07950000
N        0.56580000      -1.96200000       1.10230000
C        0.13490000      -0.65690000       1.25280000
N       -0.14400000      -0.02750000       2.32420000
H        0.25410000       2.00720000       0.60590000
H       -0.47900000       1.74520000      -1.00320000
H       -1.42420000       1.46670000       0.48820000
H        0.17400000      -0.05220000      -2.02970000
H        0.68530000      -2.51730000       1.93720000
H       -0.01490000      -0.61060000       3.14810000
