18
Properties=species:S:1:pos:R:3 gdb_128588=T pbc="F F F"
C       -0.09200000       1.38030000       0.08280000
O        0.00410000      -0.02860000       0.05120000
C        0.62600000      -0.54030000      -1.04490000
C        1.16520000       0.06400000      -2.16300000
N        1.61100000      -0.94380000      -2.96340000
C        2.40270000      -0.83050000      -4.16230000
N        1.40550000      -2.16700000      -2.41240000
C        0.80370000      -1.93070000      -1.25240000
N        0.45690000      -2.94580000      -0.36300000
H        0.90290000       1.84730000       0.07220000
H       -0.66920000       1.76060000      -0.77220000
H       -0.60410000       1.64390000       1.00980000
H        1.25860000       1.09870000      -2.44770000
H        3.47860000      -0.87170000      -3.95020000
H        2.14780000      -1.65470000      -4.83170000
H        2.17540000       0.11680000      -4.65730000
H        0.35530000      -3.83840000      -0.82810000
H       -0.36830000      -2.72080000       0.17660000
