14
Properties=species:S:1:pos:R:3 gdb_133244=T pbc="F F F"
C       -0.03280000       1.44910000      -0.00290000
N       -0.00750000      -0.00820000       0.01130000
N       -0.04050000      -0.62140000      -1.15730000
C       -0.01910000      -1.92450000      -1.17110000
C        0.03810000      -2.62450000       0.07340000
F        0.05880000      -3.94630000       0.01260000
N        0.07140000      -2.06650000       1.22090000
C        0.05010000      -0.67350000       1.26430000
N        0.07570000       0.04580000       2.31600000
H        0.86140000       1.83850000       0.48990000
H       -0.07620000       1.76380000      -1.04410000
H       -0.90140000       1.80860000       0.55410000
H       -0.04570000      -2.42780000      -2.12770000
H        0.11530000      -0.56240000       3.13150000
