13
Properties=species:S:1:pos:R:3 gdb_24859=T pbc="F F F"
N       -0.06310000       1.03400000       0.84080000
C       -0.06940000       0.09660000      -0.00640000
O        1.09770000      -0.19060000      -0.71780000
C        1.49790000      -1.36680000      -1.28040000
O        2.47700000      -1.37910000      -1.97080000
C        0.76490000      -2.64250000      -0.97450000
N       -0.48170000      -2.84640000      -0.83060000
C       -1.44930000      -1.84850000      -0.79700000
C       -1.31230000      -0.58120000      -0.37790000
H        0.87350000       1.42840000       0.94280000
H        1.43410000      -3.50310000      -0.97090000
H       -2.44270000      -2.21620000      -1.03600000
H       -2.19970000       0.02250000      -0.22620000
