18
Properties=species:S:1:pos:R:3 gdb_15726=T pbc="F F F"
C        0.37410000       1.09080000       0.35910000
O        0.42320000      -0.29720000       0.08220000
C        0.46970000      -0.60950000      -1.29430000
O        1.66860000      -0.21610000      -1.90020000
C        2.62000000      -1.30340000      -1.87670000
C        1.92450000      -2.47990000      -1.18460000
C        0.43060000      -2.14610000      -1.37780000
O       -0.45430000      -2.74420000      -0.46820000
H        1.26140000       1.60310000      -0.02980000
H       -0.52240000       1.55200000      -0.08100000
H        0.33580000       1.20260000       1.44470000
H       -0.34760000      -0.09410000      -1.81710000
H        2.88670000      -1.53470000      -2.91480000
H        3.52650000      -0.97390000      -1.35900000
H        2.20170000      -3.44740000      -1.60660000
H        2.14170000      -2.49320000      -0.11280000
H        0.10640000      -2.43460000      -2.38360000
H       -0.41150000      -2.20160000       0.33050000
