19
Properties=species:S:1:pos:R:3 gdb_117505=T pbc="F F F"
C       -0.08390000       1.40270000      -0.03640000
O        0.03780000       0.00030000      -0.00430000
C        0.60530000      -0.52730000      -1.17550000
C        0.60650000      -2.06820000      -1.05230000
C       -0.75770000      -2.60460000      -0.99680000
C       -1.87500000      -3.04260000      -0.95990000
C        1.38190000      -2.66500000      -2.14460000
C        2.02690000      -3.12900000      -3.04790000
C        2.80060000      -3.70610000      -4.13760000
H        0.89500000       1.89600000      -0.14580000
H       -0.73100000       1.73650000      -0.86240000
H       -0.53130000       1.71200000       0.91100000
H        0.03440000      -0.23040000      -2.06860000
H        1.64360000      -0.18300000      -1.30590000
H        1.10180000      -2.29480000      -0.09710000
H       -2.86200000      -3.43190000      -0.92210000
H        2.20140000      -4.42140000      -4.71140000
H        3.14850000      -2.93300000      -4.83140000
H        3.68260000      -4.23670000      -3.76240000
