20
Properties=species:S:1:pos:R:3 gdb_102299=T pbc="F F F"
C        0.01900000       1.57940000       0.04860000
C        0.01720000       0.05180000       0.00520000
O        0.63850000      -0.50290000       1.16330000
C       -1.40090000      -0.51880000      -0.02490000
C       -1.43980000      -2.05890000      -0.09040000
C       -2.87550000      -2.61270000       0.07490000
O       -2.92630000      -4.01970000       0.06190000
C       -0.88260000      -2.55840000      -1.35080000
N       -0.49010000      -2.97250000      -2.35720000
H        1.04440000       1.96310000       0.08660000
H       -0.45950000       2.00040000      -0.84170000
H       -0.51150000       1.93830000       0.93620000
H        0.54710000      -0.28180000      -0.90150000
H        1.56390000      -0.24010000       1.16480000
H       -1.91850000      -0.20730000       0.89000000
H       -1.94630000      -0.09450000      -0.87440000
H       -0.82300000      -2.45680000       0.72180000
H       -3.25090000      -2.29840000       1.05340000
H       -3.52650000      -2.16860000      -0.69380000
H       -2.66440000      -4.32200000      -0.81540000
