21
Properties=species:S:1:pos:R:3 gdb_106578=T pbc="F F F"
C        0.06700000       1.53970000       0.07750000
C       -0.00830000       0.01610000      -0.08150000
C       -1.41550000      -0.54040000      -0.01240000
C       -2.32600000      -0.46000000       1.26670000
C       -3.12700000      -1.57790000       0.52300000
C       -3.55310000      -0.81800000      -0.73790000
C       -2.44800000      -0.14650000      -1.08520000
C       -1.71020000      -2.09590000       0.06700000
O       -1.55480000      -2.91750000      -1.04270000
H        1.10120000       1.89170000       0.01470000
H       -0.50700000       2.05350000      -0.70100000
H       -0.33550000       1.85690000       1.04540000
H        0.44160000      -0.27950000      -1.03850000
H        0.60070000      -0.46060000       0.69720000
H       -1.82730000      -0.80490000       2.17900000
H       -2.85100000       0.48090000       1.44050000
H       -3.85250000      -2.21680000       1.02510000
H       -4.52430000      -0.84680000      -1.21220000
H       -2.27670000       0.51760000      -1.92170000
H       -1.15910000      -2.57160000       0.88390000
H       -2.04890000      -2.50130000      -1.76290000
