18
Properties=species:S:1:pos:R:3 gdb_58031=T pbc="F F F"
C        0.32920000       0.70500000       0.80000000
N       -0.34270000      -0.18620000      -0.15280000
H       -0.10870000      -1.89830000       0.67560000
C       -1.49070000       0.46580000      -0.78150000
C        0.58030000      -0.78910000      -1.13290000
C        1.46820000       0.14760000      -1.81790000
C        2.15480000       0.96790000      -2.36480000
C        1.34860000      -1.97000000      -0.46800000
O        2.38970000      -2.40200000      -0.86890000
O        0.66990000      -2.48890000       0.56350000
H        1.15290000       0.17590000       1.28660000
H        0.73220000       1.60820000       0.32020000
H       -0.38870000       1.00310000       1.56870000
H       -1.20140000       1.33740000      -1.38920000
H       -2.01640000      -0.24730000      -1.42280000
H       -2.18220000       0.80200000      -0.00390000
H       -0.05070000      -1.27930000      -1.88810000
H        2.78450000       1.66910000      -2.85510000
