14
Properties=species:S:1:pos:R:3 gdb_25682=T pbc="F F F"
C       -0.12970000       1.44250000      -0.00450000
C       -0.01260000      -0.00550000      -0.00580000
C        0.08250000      -1.20880000      -0.00740000
C        0.17600000      -2.60580000      -0.01280000
C        1.20900000      -3.44810000       0.19500000
N        0.71020000      -4.73440000       0.06360000
C       -0.64040000      -4.69900000      -0.22760000
O       -1.40770000      -5.60200000      -0.41000000
O       -0.96760000      -3.36020000      -0.27380000
H        0.51880000       1.89720000      -0.76180000
H       -1.15940000       1.74550000      -0.22270000
H        0.14270000       1.86520000       0.96900000
H        2.23890000      -3.23550000       0.42150000
H        1.21560000      -5.59760000       0.15700000
