16
Properties=species:S:1:pos:R:3 gdb_5110=T pbc="F F F"
C        0.03070000       1.46210000      -0.01910000
N        0.03530000       0.01430000      -0.02170000
C        0.01130000      -0.83670000      -1.13460000
C       -0.02400000      -0.32880000      -2.53380000
C        0.02800000      -2.09740000      -0.61180000
N        0.06130000      -2.07130000       0.77480000
C        0.06420000      -0.80070000       1.06630000
O        0.09210000      -0.26110000       2.30140000
H        0.90630000       1.85930000      -0.54290000
H       -0.87130000       1.85350000      -0.50080000
H        0.05400000       1.80660000       1.01470000
H        0.85150000       0.28520000      -2.78200000
H       -0.03830000      -1.17480000      -3.22510000
H       -0.91410000       0.28000000      -2.73930000
H        0.01800000      -3.03200000      -1.15200000
H        0.10930000      -1.00740000       2.91330000
