20
Properties=species:S:1:pos:R:3 gdb_77313=T pbc="F F F"
C        0.00000000       1.63190000       0.01760000
C        0.02170000       0.09490000       0.00960000
N        0.78180000      -0.45920000      -1.12080000
C        1.94250000      -1.24450000      -0.69610000
C        1.80000000      -1.22140000       0.79770000
C        0.75010000      -0.50590000       1.19900000
C        0.28260000      -0.27250000       2.60020000
C        0.37760000      -0.43730000      -2.41250000
O        0.97320000      -0.96300000      -3.33270000
H        1.01790000       2.02960000       0.06990000
H       -0.47520000       2.01850000      -0.88850000
H       -0.56690000       2.00580000       0.87600000
H       -1.01890000      -0.26480000      -0.02140000
H        1.90080000      -2.25400000      -1.12550000
H        2.88250000      -0.79710000      -1.04880000
H        2.48880000      -1.74440000       1.45030000
H        0.90630000      -0.81010000       3.31860000
H        0.30580000       0.79170000       2.86370000
H       -0.75440000      -0.60600000       2.73320000
H       -0.57250000       0.11850000      -2.54840000
