16
Properties=species:S:1:pos:R:3 gdb_32026=T pbc="F F F"
C       -0.12700000       1.49400000       0.04680000
N       -0.07670000       0.05020000      -0.12170000
C       -1.16690000      -0.75380000      -0.03440000
C       -1.15820000      -2.12250000       0.04650000
N       -2.32620000      -2.82390000       0.08330000
C       -3.44940000      -2.17950000       0.04290000
C       -3.55320000      -0.73140000      -0.03640000
N       -4.56700000       0.03160000      -0.08080000
O       -2.32150000      -0.07020000      -0.06320000
H        0.83360000       1.90960000      -0.26320000
H       -0.91060000       1.91500000      -0.58440000
H       -0.32460000       1.79310000       1.08450000
H        0.80510000      -0.40580000       0.04430000
H       -0.22780000      -2.67530000       0.07740000
H       -4.37990000      -2.74110000       0.07360000
H       -5.41710000      -0.52920000      -0.05360000
