18
Properties=species:S:1:pos:R:3 gdb_19443=T pbc="F F F"
C        0.11550000       1.50600000      -0.09020000
C        1.36560000       0.67150000       0.09160000
C        0.02480000       0.01510000      -0.00610000
C       -0.70040000      -0.84690000       1.02340000
O       -1.15000000      -1.74740000      -0.01830000
C       -0.48810000      -0.97540000      -1.02500000
C       -1.08120000      -0.77500000      -2.37930000
C        0.17850000      -1.61600000      -2.19600000
H       -0.24250000       2.08770000       0.75350000
H       -0.05160000       1.97410000      -1.05540000
H        2.04390000       0.57520000      -0.75050000
H        1.85790000       0.68560000       1.05910000
H       -0.06340000      -1.35890000       1.75540000
H       -1.54320000      -0.37110000       1.54010000
H       -2.00620000      -1.30010000      -2.59260000
H       -0.99270000       0.19950000      -2.84970000
H        1.12670000      -1.21530000      -2.54130000
H        0.07920000      -2.69220000      -2.28920000
