23
Properties=species:S:1:pos:R:3 gdb_57358=T pbc="F F F"
C       -1.43630000      -0.33640000      -0.15910000
C        0.06210000      -0.04940000      -0.03470000
C        0.29730000       1.42910000       0.29800000
O        0.52850000      -0.87850000       1.03800000
C        0.80200000      -0.43880000      -1.34340000
O        0.26940000       0.40400000      -2.34980000
C        2.36210000      -0.48380000      -1.23280000
C        2.30320000      -2.03320000      -1.19380000
C        0.82300000      -1.97040000      -1.65140000
H       -1.85730000       0.20070000      -1.01050000
H       -1.61630000      -1.40560000      -0.29640000
H       -1.94900000      -0.02520000       0.75510000
H       -0.21100000       1.68350000       1.23270000
H        1.36520000       1.64490000       0.42020000
H       -0.07910000       2.07080000      -0.50060000
H        1.35850000      -0.51220000       1.35870000
H        0.67180000       0.16000000      -3.18890000
H        2.81930000      -0.10140000      -2.15120000
H        2.83600000       0.03050000      -0.39120000
H        2.99990000      -2.56480000      -1.84540000
H        2.39600000      -2.42670000      -0.18090000
H        0.11160000      -2.59830000      -1.11330000
H        0.70330000      -2.14930000      -2.72540000
