16
Properties=species:S:1:pos:R:3 gdb_46202=T pbc="F F F"
O       -0.12720000       0.06140000      -0.27260000
C       -0.05150000       1.21690000      -0.00140000
O       -1.05010000       2.04590000       0.44630000
C       -0.15690000       3.20530000       0.51050000
C        1.00550000       2.32440000       0.03860000
C        2.43460000       2.21670000       0.59880000
C        2.73480000       1.49960000      -0.73760000
N        1.84140000       2.67700000      -1.19770000
C        2.67890000       3.51170000      -0.20450000
H       -0.47470000       3.97890000      -0.19150000
H       -0.10160000       3.59430000       1.52950000
H        2.74350000       1.95590000       1.61550000
H        3.75330000       1.56730000      -1.12620000
H        2.28880000       0.52080000      -0.91230000
H        2.18760000       4.43270000       0.12060000
H        3.69350000       3.70780000      -0.56030000
