21
Properties=species:S:1:pos:R:3 gdb_73275=T pbc="F F F"
C       -0.02070000       1.55360000      -0.02510000
C       -0.05290000       0.03370000      -0.00860000
C       -1.30360000      -0.69140000       0.53990000
O       -0.47680000      -1.60290000       1.29540000
C        0.64670000      -0.69380000       1.17490000
C        1.99190000      -1.36010000       0.94580000
C        2.14500000      -1.85520000      -0.49290000
O        1.78620000      -0.83450000      -1.41220000
C        0.39540000      -0.57860000      -1.35640000
H        0.97710000       1.91280000      -0.29990000
H       -0.72930000       1.95610000      -0.75810000
H       -0.27550000       1.97280000       0.95380000
H       -1.92070000      -0.06430000       1.19990000
H       -1.95190000      -1.21290000      -0.17350000
H        0.69320000      -0.04820000       2.06580000
H        2.77600000      -0.62220000       1.15300000
H        2.11800000      -2.18190000       1.66050000
H        3.18390000      -2.11930000      -0.70820000
H        1.52100000      -2.74710000      -0.66180000
H       -0.15200000      -1.51590000      -1.54350000
H        0.17510000       0.11020000      -2.17810000
