16
Properties=species:S:1:pos:R:3 gdb_15972=T pbc="F F F"
O       -0.50250000       0.56260000      -0.29920000
C        0.56390000       0.71130000       0.24350000
C        1.42910000       1.93380000       0.10730000
C        0.94000000       3.08470000      -0.81140000
C        1.22400000       4.11430000       0.32250000
C        1.38280000       2.94070000       1.29000000
C        0.83680000       2.75920000       2.63690000
O        2.24650000       2.91250000       2.40000000
H        0.96860000      -0.06970000       0.92740000
H        2.46690000       1.63080000      -0.07190000
H        1.49040000       3.22260000      -1.74230000
H       -0.12170000       2.97140000      -1.03630000
H        2.17210000       4.64290000       0.18840000
H        0.44210000       4.84220000       0.55050000
H        0.35440000       3.59700000       3.13810000
H        0.52660000       1.77300000       2.97950000
