19
Properties=species:S:1:pos:R:3 gdb_84682=T pbc="F F F"
C       -0.37080000       1.32240000      -0.00080000
C        0.10050000      -0.11360000      -0.01740000
O       -1.00800000      -1.04450000       0.20410000
C       -0.43470000      -1.51110000       1.44810000
C        0.86290000      -0.70980000       1.19790000
C        1.98250000      -1.49800000       0.57460000
C        1.98080000      -1.42210000      -0.75600000
C        0.87770000      -0.53660000      -1.30060000
O        0.03010000      -1.17160000      -2.23710000
H        0.48190000       2.00650000      -0.06990000
H       -1.02700000       1.50640000      -0.85800000
H       -0.92640000       1.54870000       0.91390000
H       -1.02900000      -1.17480000       2.30650000
H       -0.33820000      -2.60170000       1.47430000
H        1.17000000      -0.03230000       1.99780000
H        2.67970000      -2.08010000       1.16870000
H        2.67200000      -1.93080000      -1.41890000
H        1.29140000       0.33940000      -1.81730000
H       -0.60070000      -1.67540000      -1.70110000
