17
Properties=species:S:1:pos:R:3 gdb_72632=T pbc="F F F"
O        0.06950000       1.42780000       0.04090000
C       -0.05090000       0.06060000       0.08090000
C        0.70680000      -0.77410000       1.10160000
C       -0.47510000      -1.80630000       1.10830000
C       -1.20680000      -0.94910000       0.08740000
O       -2.57800000      -0.88480000       0.05570000
C       -0.32420000      -0.80100000      -1.16630000
C       -0.95680000      -0.08360000      -2.23010000
C       -1.53300000       0.57070000      -3.06440000
H       -0.29130000       1.74310000      -0.79840000
H        1.68790000      -1.14730000       0.79180000
H        0.80560000      -0.25220000       2.05550000
H       -0.23920000      -2.83050000       0.80270000
H       -0.99940000      -1.82870000       2.06570000
H       -2.84720000      -0.48970000      -0.78420000
H        0.36410000      -1.59100000      -1.47050000
H       -2.01690000       1.11980000      -3.83450000
