18
Properties=species:S:1:pos:R:3 gdb_90193=T pbc="F F F"
O       -0.00310000       1.42640000       0.02410000
C        0.00340000       0.01020000       0.00000000
C        0.54100000      -0.65180000       1.33260000
C       -0.76710000      -1.28790000       1.73170000
C       -1.57990000      -2.23990000       2.62010000
C       -2.51470000      -1.81610000       1.45790000
C       -1.98990000      -0.36210000       1.41710000
C       -1.46040000      -0.47980000      -0.00990000
N       -1.35290000      -1.93340000       0.44370000
H        0.90620000       1.73450000      -0.03560000
H        0.54970000      -0.36890000      -0.87420000
H        1.33620000      -1.37970000       1.15260000
H        0.89130000       0.11420000       2.02930000
H       -1.26380000      -3.28650000       2.62710000
H       -1.83960000      -1.88490000       3.62030000
H       -3.51070000      -2.19450000       1.22390000
H       -2.32870000       0.50980000       1.98420000
H       -2.04320000      -0.25640000      -0.90530000
