18
Properties=species:S:1:pos:R:3 gdb_24689=T pbc="F F F"
C        0.11610000       1.43580000      -0.36230000
C        1.39760000       1.99760000       0.30580000
C        2.13970000       0.74890000       0.72300000
C        3.46330000       0.57100000       1.09960000
C        3.86840000      -0.71850000       1.44710000
N        3.06420000      -1.78530000       1.44230000
C        1.78870000      -1.59630000       1.08230000
C        1.28370000      -0.35580000       0.71520000
C       -0.11110000       0.04920000       0.29450000
H       -0.74360000       2.10180000      -0.25810000
H        0.29850000       1.30170000      -1.43370000
H        1.97920000       2.64390000      -0.35830000
H        1.15000000       2.59810000       1.19190000
H        4.17150000       1.39320000       1.12000000
H        4.89950000      -0.90230000       1.74100000
H        1.15450000      -2.48110000       1.08350000
H       -0.76490000       0.13400000       1.17320000
H       -0.58640000      -0.66750000      -0.38200000
