23
Properties=species:S:1:pos:R:3 gdb_61578=T pbc="F F F"
C       -0.22030000       1.74630000      -0.17320000
C        0.00350000       0.23130000      -0.06840000
C       -1.30630000      -0.57060000       0.07880000
C       -2.07600000      -0.29380000       1.35440000
C       -3.16950000       0.74670000       1.40840000
C       -3.51700000      -0.71970000       1.47760000
C        0.77430000      -0.26550000      -1.27350000
C        2.23520000      -0.40680000      -1.27760000
O        1.38750000      -1.55280000      -1.16530000
H        0.73150000       2.27980000      -0.26400000
H       -0.82620000       1.99420000      -1.05300000
H       -0.74260000       2.12870000       0.70650000
H        0.62340000       0.02560000       0.81510000
H       -1.95400000      -0.37030000      -0.78690000
H       -1.05170000      -1.63690000       0.03400000
H       -1.48150000      -0.39640000       2.26000000
H       -3.27540000       1.34520000       2.30680000
H       -3.40790000       1.27830000       0.49290000
H       -3.98510000      -1.17010000       0.60810000
H       -3.85840000      -1.12550000       2.42340000
H        0.28340000      -0.09530000      -2.23560000
H        2.79100000      -0.32520000      -2.21090000
H        2.79900000      -0.15460000      -0.37990000
