22
Properties=species:S:1:pos:R:3 gdb_100013=T pbc="F F F"
C       -0.22430000       1.61750000      -0.14750000
C       -0.02010000       0.09620000      -0.07530000
O        0.77240000      -0.21850000       1.07030000
C       -1.36930000      -0.63180000       0.08740000
O       -1.85290000      -0.30500000       1.39120000
C        0.72850000      -0.44080000      -1.30650000
C        0.01520000      -0.34080000      -2.64160000
C        2.21160000      -0.38750000      -1.28410000
N        1.50770000      -1.68030000      -1.13590000
H        0.74650000       2.11860000      -0.16740000
H       -0.78760000       1.91080000      -1.03830000
H       -0.77800000       1.96070000       0.73070000
H        0.15280000      -0.23310000       1.81200000
H       -2.08280000      -0.31170000      -0.68240000
H       -1.20870000      -1.71390000      -0.01100000
H       -2.55110000      -0.92200000       1.62540000
H       -0.19430000       0.69760000      -2.91780000
H        0.64410000      -0.78050000      -3.41910000
H       -0.93220000      -0.89060000      -2.64190000
H        2.75530000      -0.26300000      -2.21710000
H        2.69430000       0.02660000      -0.40530000
H        1.51050000      -1.90350000      -0.14180000
