15
Properties=species:S:1:pos:R:3 gdb_126128=T pbc="F F F"
C       -0.04710000       1.51970000       0.07490000
C        0.02690000      -0.00020000      -0.04420000
C        0.74430000      -0.46040000      -1.29820000
O        1.20560000       0.29000000      -2.12340000
C        0.86980000      -1.94680000      -1.49510000
N        0.39010000      -2.80680000      -0.63000000
O        0.71230000      -4.04170000      -1.18020000
C        1.35690000      -3.77910000      -2.32560000
N        1.49110000      -2.52150000      -2.58550000
H        0.95280000       1.96030000       0.09830000
H       -0.57420000       1.95450000      -0.77810000
H       -0.57310000       1.80500000       0.98970000
H        0.53510000      -0.45150000       0.81770000
H       -0.97160000      -0.45660000      -0.04400000
H        1.69170000      -4.62740000      -2.90400000
