21
Properties=species:S:1:pos:R:3 gdb_96029=T pbc="F F F"
C        0.22440000       1.55370000      -0.34780000
C       -0.00190000       0.09230000       0.03710000
O        0.33720000      -0.73310000      -1.08620000
C        1.38070000      -1.64360000      -0.74760000
C        2.05210000      -1.06620000       0.49680000
C        0.84770000      -0.44480000       1.21940000
C        1.19160000       0.58060000       2.31450000
C        1.91730000      -0.01410000       3.43170000
C        2.51090000      -0.52430000       4.34400000
H        1.28480000       1.76620000      -0.51750000
H       -0.31070000       1.76450000      -1.27750000
H       -0.15130000       2.23530000       0.42260000
H       -1.07020000      -0.05030000       0.25190000
H        0.96260000      -2.64090000      -0.53750000
H        2.05080000      -1.73430000      -1.60860000
H        2.57090000      -1.81510000       1.09830000
H        2.77640000      -0.29090000       0.22020000
H        0.28290000      -1.25690000       1.69220000
H        1.78820000       1.39600000       1.88800000
H        0.26890000       1.04170000       2.69080000
H        3.03770000      -0.96330000       5.15450000
