13
Properties=species:S:1:pos:R:3 gdb_22033=T pbc="F F F"
O       -0.11320000       1.35790000       0.10730000
N        0.05370000      -0.04080000       0.07290000
C       -1.08430000      -0.63960000      -0.04630000
C       -2.39700000      -0.00690000      -0.13770000
C       -3.49860000      -0.75330000      -0.25890000
O       -3.49150000      -2.12320000      -0.30620000
C       -2.28570000      -2.71660000      -0.22270000
F       -2.43090000      -4.02110000      -0.28080000
C       -1.11200000      -2.09190000      -0.09950000
H        0.79470000       1.66430000       0.19650000
H       -2.47800000       1.06940000      -0.10700000
H       -4.50910000      -0.37610000      -0.33310000
H       -0.19660000      -2.66350000      -0.04030000
