21
Properties=species:S:1:pos:R:3 gdb_79956=T pbc="F F F"
C       -0.18200000       1.61260000       0.03870000
C        0.00200000       0.08170000       0.01170000
C       -1.38110000      -0.59650000      -0.08010000
C        0.87160000      -0.39390000      -1.14520000
C        1.83990000      -1.23120000      -0.75760000
C        1.89180000      -1.37340000       0.72570000
C        2.21100000      -0.08290000       1.45600000
O        2.85560000       0.99550000       0.84980000
C        0.76690000      -0.45450000       1.23540000
H        0.77350000       2.12750000       0.15260000
H       -0.66590000       1.96190000      -0.88050000
H       -0.82160000       1.90350000       0.87880000
H       -1.90180000      -0.30150000      -0.99770000
H       -1.28580000      -1.68630000      -0.07840000
H       -2.00860000      -0.30400000       0.76980000
H        0.67380000      -0.08950000      -2.16830000
H        2.54530000      -1.72330000      -1.41850000
H        2.14840000      -2.32610000       1.17630000
H        2.56940000      -0.19440000       2.47480000
H        2.78180000       0.87430000      -0.10620000
H        0.18210000      -0.72640000       2.10860000
