15
Properties=species:S:1:pos:R:3 gdb_31213=T pbc="F F F"
N        0.35570000       1.52590000      -0.18140000
C       -0.02970000       0.13100000       0.07050000
C        0.68600000      -0.40680000       1.26050000
C        0.26750000      -0.88840000       2.47410000
C        1.45450000      -1.26860000       3.19870000
C        2.48990000      -0.98750000       2.37560000
O        2.03610000      -0.46920000       1.19630000
C       -1.07640000      -0.98740000       2.90970000
N       -2.17560000      -1.07370000       3.26470000
H        1.33630000       1.56200000      -0.44360000
H       -0.16690000       1.87760000      -0.97800000
H       -1.10140000       0.09610000       0.28790000
H        0.14920000      -0.54770000      -0.78210000
H        1.49900000      -1.68710000       4.19060000
H        3.55850000      -1.08740000       2.46200000
