19
Properties=species:S:1:pos:R:3 gdb_98434=T pbc="F F F"
C       -0.24850000       1.71020000      -0.41210000
C       -0.07000000       0.23780000      -0.06930000
C        0.78600000      -0.61140000      -1.05270000
C        1.73550000      -0.78740000       0.14710000
O        0.89540000       0.03120000       0.99330000
C       -1.41470000      -0.39530000       0.26580000
O       -2.33760000      -0.37650000      -0.52300000
C       -1.59080000      -1.06090000       1.61870000
O       -2.88410000      -1.56680000       1.76340000
H        0.70790000       2.14510000      -0.71420000
H       -0.97090000       1.81470000      -1.22580000
H       -0.61900000       2.26360000       0.45660000
H        0.31100000      -1.51800000      -1.42890000
H        1.18620000      -0.04100000      -1.89190000
H        1.82750000      -1.80920000       0.53290000
H        2.73690000      -0.35790000       0.03560000
H       -0.82980000      -1.85120000       1.71870000
H       -1.34680000      -0.32250000       2.39920000
H       -3.33440000      -1.35700000       0.92940000
