18
Properties=species:S:1:pos:R:3 gdb_61901=T pbc="F F F"
C        0.00170000       1.55830000      -0.05900000
C       -0.04470000       0.01580000       0.01770000
N        0.45590000      -0.70080000      -1.14880000
C       -0.09510000      -0.29460000      -2.42950000
C        0.33200000      -1.21170000      -3.49290000
N        0.67520000      -1.91430000      -4.34280000
C        0.84120000      -0.42800000       1.19170000
N        0.19950000      -0.63030000       2.37370000
O        2.04710000      -0.52440000       1.06450000
H        1.03090000       1.89560000      -0.21490000
H       -0.62120000       1.93670000      -0.87430000
H       -0.36640000       2.00080000       0.87190000
H       -1.08400000      -0.29690000       0.19210000
H        1.47100000      -0.66690000      -1.13910000
H       -1.19100000      -0.33360000      -2.37370000
H        0.16210000       0.72890000      -2.75260000
H       -0.80150000      -0.70010000       2.42860000
H        0.74570000      -0.94790000       3.15880000
