16
Properties=species:S:1:pos:R:3 gdb_44344=T pbc="F F F"
N       -0.14140000       1.33740000       0.20190000
C       -0.05400000       0.10630000      -0.06930000
O        1.18230000      -0.53630000      -0.15700000
C        1.26290000      -1.68650000      -0.98680000
C        0.66470000      -3.13270000      -0.89680000
C       -0.76530000      -3.36480000      -0.30990000
C       -1.00820000      -1.96010000      -0.83370000
C       -1.15830000      -0.87680000      -0.06560000
C        0.13270000      -2.04720000      -1.84200000
H        0.79240000       1.74790000       0.27480000
H        2.26390000      -1.71640000      -1.40850000
H        1.33630000      -3.95020000      -1.14440000
H       -1.24250000      -4.17310000      -0.87460000
H       -0.88790000      -3.52810000       0.76420000
H       -1.78410000      -0.88540000       0.82230000
H        0.05340000      -2.00540000      -2.92120000
