16
Properties=species:S:1:pos:R:3 gdb_14613=T pbc="F F F"
O       -0.21550000       0.00300000      -0.10700000
C       -0.01840000       1.18870000      -0.05430000
C        1.33130000       1.85010000      -0.21890000
C        1.31650000       2.91960000      -1.30990000
O        2.52970000       3.63600000      -1.23040000
C        2.62910000       4.64240000      -2.22210000
C        3.89310000       5.35220000      -2.08430000
C        4.92790000       5.95400000      -1.99280000
H       -0.85780000       1.89950000       0.13460000
H        1.58030000       2.34800000       0.72850000
H        2.08790000       1.08860000      -0.41990000
H        1.20340000       2.45450000      -2.30320000
H        0.45740000       3.59950000      -1.17070000
H        2.55940000       4.19790000      -3.22950000
H        1.79070000       5.35440000      -2.13220000
H        5.84520000       6.48220000      -1.90690000
