19
Properties=species:S:1:pos:R:3 gdb_50294=T pbc="F F F"
O        0.08520000      -0.12800000       0.00500000
C        0.04460000       1.07650000      -0.02190000
C        1.25140000       1.97780000      -0.01660000
C        1.25950000       3.02300000      -1.17970000
C        1.44210000       4.38990000      -0.43190000
C        2.35240000       3.95500000       0.73850000
C        1.34260000       2.90740000       1.26330000
C        0.07950000       3.75430000       1.31850000
C        0.14300000       4.63860000       0.31710000
H       -0.93030000       1.61560000      -0.05290000
H        2.13530000       1.33610000      -0.05290000
H        2.08890000       2.82570000      -1.86420000
H        0.33700000       3.00620000      -1.76740000
H        1.79530000       5.19970000      -1.07040000
H        3.30610000       3.52230000       0.41870000
H        2.53030000       4.75770000       1.45820000
H        1.60390000       2.36290000       2.17050000
H       -0.74660000       3.58690000       1.99800000
H       -0.62430000       5.33620000       0.00490000
