16
Properties=species:S:1:pos:R:3 gdb_54350=T pbc="F F F"
N        0.05270000       1.29070000       0.44390000
C        0.00820000       0.15890000      -0.30020000
O        0.91300000      -0.21720000      -1.01600000
C       -1.28650000      -0.67610000      -0.20650000
C       -1.84030000      -1.10930000      -1.61480000
N       -1.45120000      -2.51370000      -1.36940000
C       -1.01230000      -2.21110000       0.00890000
C       -2.28200000      -0.11040000       0.68520000
N       -3.05480000       0.36660000       1.40310000
H        0.88740000       1.85210000       0.39860000
H       -0.70950000       1.58490000       1.03090000
H       -2.91290000      -0.92380000      -1.72770000
H       -1.29590000      -0.65180000      -2.44490000
H       -2.22690000      -3.16270000      -1.41430000
H        0.04350000      -2.43440000       0.18210000
H       -1.61930000      -2.64530000       0.80930000
