17
Properties=species:S:1:pos:R:3 gdb_92917=T pbc="F F F"
C        0.05940000       1.56650000       0.08750000
C        0.00560000       0.05470000      -0.03560000
C        0.72460000      -0.50080000      -1.26010000
C        0.72260000      -2.04150000      -1.19050000
N        1.13800000      -2.55020000       0.12110000
C        1.06110000      -1.75260000       1.10500000
O        0.60800000      -0.48770000       1.16520000
C       -0.60300000      -2.58120000      -1.53870000
N       -1.65340000      -2.97250000      -1.81970000
H        1.09560000       1.91780000       0.09830000
H       -0.45860000       2.03000000      -0.75710000
H       -0.42520000       1.89070000       1.01180000
H       -1.03860000      -0.28440000      -0.04640000
H        0.24630000      -0.14440000      -2.17630000
H        1.76450000      -0.15660000      -1.26270000
H        1.42800000      -2.43980000      -1.92920000
H        1.40830000      -2.07190000       2.08610000
