18
Properties=species:S:1:pos:R:3 gdb_61535=T pbc="F F F"
O       -0.26380000       1.29170000      -0.03430000
C       -0.00780000      -0.10490000       0.02810000
C        0.61050000      -0.67410000      -1.26660000
C       -0.07780000      -0.09710000      -2.49570000
O       -1.47520000      -0.03230000      -2.39320000
C        0.60720000       0.97200000      -3.31370000
C        0.44300000      -0.43450000      -3.85730000
C        0.82190000      -0.44320000       1.20020000
N        1.49820000      -0.69390000       2.10290000
H        0.56750000       1.74900000      -0.20700000
H       -0.99310000      -0.55920000       0.16820000
H        1.68400000      -0.45810000      -1.29980000
H        0.50300000      -1.76470000      -1.23440000
H       -1.66970000       0.72060000      -1.81960000
H       -0.02610000       1.74390000      -3.73630000
H        1.60150000       1.30170000      -3.02940000
H        1.32100000      -1.06640000      -3.93540000
H       -0.30090000      -0.58580000      -4.63030000
