18
Properties=species:S:1:pos:R:3 gdb_72360=T pbc="F F F"
C       -0.11520000       1.59350000      -0.15160000
C       -0.01470000       0.07320000      -0.02560000
C       -1.40210000      -0.58470000       0.23780000
N       -1.38090000      -1.08980000       1.62370000
C       -0.19830000      -0.93400000       2.06350000
N        0.72630000      -0.29030000       1.22190000
C        1.92670000      -0.89730000       0.81190000
N        2.11930000      -1.02930000      -0.43780000
C        0.90480000      -0.54480000      -1.12090000
H        0.87890000       2.04880000      -0.19890000
H       -0.65790000       1.85950000      -1.06560000
H       -0.65020000       2.02240000       0.70130000
H       -2.21380000       0.13990000       0.12210000
H       -1.61800000      -1.42130000      -0.43910000
H        0.12490000      -1.25770000       3.04850000
H        2.63970000      -1.21430000       1.56740000
H        0.43910000      -1.38570000      -1.65070000
H        1.17850000       0.19860000      -1.87580000
