17
Properties=species:S:1:pos:R:3 gdb_2027=T pbc="F F F"
C       -0.61620000       1.39330000       0.10980000
C        0.11110000       0.06840000       0.01480000
C        0.90180000      -0.24500000      -1.27880000
C        2.10060000      -0.32320000      -0.34280000
C        3.18490000      -1.34740000      -0.26130000
C        3.51260000       0.11920000      -0.52470000
O        1.33430000       0.05260000       0.80200000
H        0.02820000       2.21380000      -0.22060000
H       -1.51640000       1.38100000      -0.51480000
H       -0.91980000       1.58960000       1.14290000
H       -0.54650000      -0.75300000       0.32900000
H        0.63320000      -1.16900000      -1.79420000
H        0.93100000       0.57870000      -1.99700000
H        3.42010000      -1.73890000       0.72270000
H        3.29320000      -2.05960000      -1.07330000
H        3.84400000       0.41020000      -1.51660000
H        3.96080000       0.68130000       0.28780000
