18
Properties=species:S:1:pos:R:3 gdb_94305=T pbc="F F F"
O        0.37300000       1.18840000      -0.43140000
C        0.16790000      -0.04890000       0.19860000
C       -0.17510000      -0.10720000       1.71700000
C       -1.23730000      -1.19170000       1.37760000
C       -1.19780000      -0.69230000      -0.07750000
C       -2.33930000       0.14940000      -0.68270000
C       -2.35600000      -0.93170000      -1.74040000
N       -3.03160000      -1.15790000      -2.77110000
O       -1.31900000      -1.64890000      -1.17060000
H        1.28960000       1.45350000      -0.31100000
H        0.95840000      -0.77160000      -0.04820000
H        0.62410000      -0.37480000       2.41010000
H       -0.63640000       0.83060000       2.03650000
H       -0.83290000      -2.20450000       1.45120000
H       -2.19830000      -1.15170000       1.89320000
H       -3.24910000       0.22490000      -0.08480000
H       -2.04150000       1.13400000      -1.04410000
H       -2.72730000      -2.01850000      -3.22970000
