20
Properties=species:S:1:pos:R:3 gdb_108095=T pbc="F F F"
C        0.07120000       1.21040000      -0.29570000
O       -0.12160000      -0.07110000       0.28450000
C       -1.40820000      -0.53670000       0.18550000
C       -2.62690000      -0.22610000       1.03830000
N       -3.25000000      -1.50450000       0.50630000
C       -3.46810000      -1.15920000      -0.95850000
C       -1.96680000      -1.13750000      -1.14140000
C       -1.81690000      -1.96960000       0.11240000
C       -1.18930000      -3.27140000       0.46200000
H        1.12650000       1.46130000      -0.16970000
H       -0.17730000       1.20570000      -1.36560000
H       -0.53950000       1.97570000       0.20250000
H       -2.42700000      -0.33480000       2.10770000
H       -3.22130000       0.67720000       0.86040000
H       -3.95870000      -1.99840000      -1.46020000
H       -4.05080000      -0.24550000      -1.12480000
H       -1.35280000      -1.16240000      -2.03420000
H       -0.15360000      -3.29170000       0.10820000
H       -1.17960000      -3.42520000       1.54650000
H       -1.72430000      -4.11110000       0.00550000
