14
Properties=species:S:1:pos:R:3 gdb_46345=T pbc="F F F"
O       -0.08120000       0.00210000       0.02430000
C       -0.06770000       1.19780000       0.01410000
N       -1.03790000       2.15790000      -0.08300000
C       -0.15750000       3.32070000       0.02700000
C        1.04690000       2.31760000       0.08580000
C        1.88680000       2.33960000       1.25380000
C        2.58730000       2.35030000       2.24130000
C        3.37150000       2.36530000       3.35190000
C        4.06880000       2.38110000       4.33780000
H       -2.04120000       2.07680000      -0.15340000
H       -0.16380000       3.97870000      -0.84660000
H       -0.29340000       3.90460000       0.94070000
H        1.64090000       2.32390000      -0.83360000
H        4.68140000       2.39030000       5.20500000
