18
Properties=species:S:1:pos:R:3 gdb_8413=T pbc="F F F"
C       -0.04070000       1.54500000      -0.06360000
C        0.01330000       0.03600000       0.00010000
O       -1.15200000      -0.61000000      -0.44620000
C        1.32790000      -0.69300000      -0.20230000
C        0.66430000      -0.66080000       1.14890000
C        1.15410000      -0.10110000       2.47980000
O        0.54540000      -1.20100000       3.18870000
C        0.09110000      -1.81620000       1.95890000
H        0.86880000       1.99480000       0.34510000
H       -0.14100000       1.88730000      -1.10090000
H       -0.89870000       1.92320000       0.50140000
H       -1.21890000      -0.47960000      -1.39870000
H        1.29640000      -1.63240000      -0.74580000
H        2.23130000      -0.10770000      -0.34870000
H        2.24450000      -0.07950000       2.61300000
H        0.73680000       0.86790000       2.78470000
H       -0.99860000      -1.92500000       1.92460000
H        0.56080000      -2.79470000       1.79370000
