14
Properties=species:S:1:pos:R:3 gdb_57127=T pbc="F F F"
N        0.05650000       1.03630000      -0.09180000
H       -1.30780000      -0.27600000      -0.03750000
H        1.06270000       1.04830000       0.03570000
H       -0.14890000       1.64520000      -0.87910000
C       -0.63040000       1.53470000       1.11800000
C       -0.69980000       2.98440000       1.22290000
C       -0.72940000       4.19340000       1.25710000
C       -0.76420000       5.55250000       1.29800000
C       -0.79190000       6.75900000       1.33260000
C       -2.04200000       0.87240000       1.22500000
O       -2.90190000       1.27820000       1.95100000
O       -2.15190000      -0.21900000       0.46300000
H       -0.08510000       1.13670000       1.98490000
H       -0.82250000       7.81990000       1.36690000
