16
Properties=species:S:1:pos:R:3 gdb_2702=T pbc="F F F"
O       -0.07710000       1.45890000       0.01070000
C        0.03250000       0.04480000       0.00190000
C       -1.37920000      -0.52810000       0.01230000
C       -1.39570000      -2.05790000       0.00410000
C       -2.83330000      -2.61440000       0.01490000
C       -2.87170000      -4.07530000       0.00760000
N       -2.88270000      -5.23080000       0.00130000
H        0.80950000       1.83150000       0.00430000
H        0.57120000      -0.31000000      -0.89220000
H        0.58820000      -0.31970000       0.88160000
H       -1.90110000      -0.14720000       0.89890000
H       -1.91800000      -0.13760000      -0.85980000
H       -0.87410000      -2.43930000      -0.88120000
H       -0.85730000      -2.44890000       0.87500000
H       -3.37150000      -2.25750000       0.90090000
H       -3.38830000      -2.24810000      -0.85680000
