15
Properties=species:S:1:pos:R:3 gdb_26963=T pbc="F F F"
N       -0.54940000       0.69330000       1.25830000
C       -0.25870000      -0.28350000       0.33100000
C       -0.99220000      -0.94120000      -0.61440000
N       -0.17620000      -1.89630000      -1.22090000
C        0.96190000      -1.77630000      -0.63370000
O        0.99500000      -0.80960000       0.33600000
C       -2.39520000      -0.71730000      -1.00300000
C       -3.51740000      -0.81260000      -0.05080000
O       -3.00990000       0.46570000      -0.45500000
H        0.20970000       1.34240000       1.42070000
H       -1.41430000       1.16300000       1.01580000
H        1.87880000      -2.31600000      -0.80330000
H       -2.61410000      -0.89480000      -2.05530000
H       -4.51730000      -1.04460000      -0.41410000
H       -3.31290000      -1.08870000       0.98170000
