14
Properties=species:S:1:pos:R:3 gdb_2516=T pbc="F F F"
C        0.03720000       1.51370000       0.06520000
N       -0.12850000       0.06570000      -0.06280000
C        0.62070000      -0.51100000      -1.16410000
C        2.14970000      -0.59190000      -0.93110000
O        2.66520000      -0.32600000       0.12060000
C        0.18430000      -1.87180000      -1.48840000
C       -0.10150000      -3.01300000      -1.73410000
H        1.07860000       1.84680000       0.18300000
H       -0.38570000       2.00430000      -0.81900000
H       -0.53170000       1.85550000       0.93390000
H        0.16970000      -0.38720000       0.79560000
H        0.47120000       0.12150000      -2.05300000
H        2.73710000      -0.94340000      -1.80740000
H       -0.38670000      -4.01150000      -1.95770000
