16
Properties=species:S:1:pos:R:3 gdb_7759=T pbc="F F F"
C        0.17750000       1.48830000      -0.15820000
C       -0.03270000      -0.00030000       0.13140000
O        0.22840000      -0.71840000      -1.09220000
C        1.14580000      -1.69840000      -1.24700000
O        1.27350000      -2.20870000      -2.32670000
C        1.98560000      -2.12370000      -0.05240000
C        1.67450000      -1.42900000       1.23550000
C        0.75810000      -0.47340000       1.30950000
H        1.23250000       1.69250000      -0.36180000
H       -0.41380000       1.78730000      -1.02710000
H       -0.13390000       2.08960000       0.70140000
H       -1.10160000      -0.16450000       0.33020000
H        1.86990000      -3.21080000       0.04060000
H        3.03510000      -1.97880000      -0.34030000
H        2.22770000      -1.73830000       2.11790000
H        0.53510000       0.02590000       2.24800000
