18
Properties=species:S:1:pos:R:3 gdb_104602=T pbc="F F F"
N       -1.30590000       1.25710000       2.73360000
H       -1.27310000       0.24110000       2.69200000
H       -1.78590000       1.52000000       3.60300000
H       -0.33910000       1.63710000       2.77550000
C       -1.83160000       1.84160000       1.43450000
C       -1.10370000       3.14780000       1.21610000
C       -1.11970000       3.59200000      -0.23350000
C       -0.57410000       2.55500000      -1.24460000
O       -0.80940000       1.28940000      -0.95030000
O       -0.00750000       2.92390000      -2.24620000
C       -0.77610000       4.13350000       2.26800000
O        0.21290000       3.16580000       1.85220000
H       -1.27200000       1.25630000       0.00120000
H       -2.91070000       1.98100000       1.53360000
H       -2.16100000       3.79980000      -0.51550000
H       -0.55510000       4.51540000      -0.37240000
H       -0.53120000       5.16280000       2.01150000
H       -1.14960000       4.00590000       3.28580000
