17
Properties=species:S:1:pos:R:3 gdb_25703=T pbc="F F F"
C        0.03930000       1.53180000       0.17290000
C        0.01720000       0.07810000       0.09800000
C       -0.00310000      -1.12340000       0.03610000
C       -0.03620000      -2.58510000      -0.03540000
C       -1.41460000      -3.15680000      -0.16380000
C       -2.04050000      -3.86180000      -1.14400000
C       -3.36480000      -4.13560000      -0.66560000
C       -3.43810000      -3.57480000       0.56780000
O       -2.25930000      -2.97640000       0.88970000
H        0.62350000       1.96530000      -0.64640000
H       -0.97300000       1.94670000       0.11250000
H        0.48220000       1.87650000       1.11390000
H        0.54730000      -2.93210000      -0.89610000
H        0.45280000      -3.00550000       0.85460000
H       -1.61420000      -4.14870000      -2.09270000
H       -4.14790000      -4.67530000      -1.17440000
H       -4.21200000      -3.51240000       1.31470000
