18
Properties=species:S:1:pos:R:3 gdb_31975=T pbc="F F F"
C        0.47630000       0.89840000      -0.60470000
N       -0.34710000       0.16490000       0.36590000
C        0.35260000      -0.48550000       1.39300000
C        0.65830000      -0.18530000       2.69000000
N        1.34230000      -1.23310000       3.29730000
C        1.45330000      -2.13700000       2.36320000
N        0.88370000      -1.76020000       1.18590000
O        2.04740000      -3.33610000       2.43790000
C        2.62090000      -3.63430000       3.71100000
H        1.14400000       0.19950000      -1.11710000
H       -0.17590000       1.35070000      -1.35730000
H        1.09670000       1.68510000      -0.14950000
H       -1.05220000       0.77330000       0.76200000
H        0.42300000       0.71730000       3.23340000
H        0.76800000      -2.32750000       0.36350000
H        3.39100000      -2.90180000       3.97060000
H        1.85550000      -3.62620000       4.49270000
H        3.05720000      -4.62910000       3.61410000
