20
Properties=species:S:1:pos:R:3 gdb_91144=T pbc="F F F"
C        0.36690000       1.59600000       0.04840000
C        0.10160000       0.09730000       0.05020000
C        0.89060000      -0.79170000      -0.97000000
C        1.40010000      -1.68270000       0.20060000
N        2.82660000      -1.53700000       0.49870000
C        2.91310000      -0.68400000       1.43830000
C        4.16550000      -0.18720000       2.07470000
O        1.76130000      -0.14590000       1.95020000
C        0.67740000      -0.75100000       1.21940000
H        1.43220000       1.81100000       0.17230000
H        0.04040000       2.04030000      -0.89780000
H       -0.16920000       2.09840000       0.86030000
H       -0.97570000      -0.08400000      -0.02800000
H        0.27390000      -1.30050000      -1.71460000
H        1.70600000      -0.27520000      -1.48260000
H        1.11440000      -2.73570000       0.15730000
H        5.02650000      -0.67990000       1.62450000
H        4.25330000       0.89640000       1.94590000
H        4.14660000      -0.38500000       3.15100000
H       -0.03620000      -1.14910000       1.94380000
