18
Properties=species:S:1:pos:R:3 gdb_74828=T pbc="F F F"
C       -0.01220000       1.49140000      -0.07610000
C       -0.03350000      -0.00240000      -0.03180000
C       -0.08550000      -0.84630000      -1.06910000
C        0.00270000      -2.26650000      -0.63290000
N        1.24850000      -2.60280000       0.06830000
C        0.08080000      -2.21810000       0.88350000
C        0.03130000      -0.75380000       1.29050000
C       -0.59460000      -3.28370000       1.65240000
O       -0.38880000      -4.46550000       1.48520000
H        0.92090000       1.88470000       0.34660000
H       -0.10300000       1.86480000      -1.09930000
H       -0.82880000       1.91810000       0.52030000
H       -0.15140000      -0.55570000      -2.11100000
H       -0.53730000      -3.06100000      -1.13810000
H        1.30800000      -3.62180000       0.13990000
H        0.91100000      -0.46420000       1.87770000
H       -0.85120000      -0.54410000       1.91260000
H       -1.32600000      -2.92700000       2.40990000
