18
Properties=species:S:1:pos:R:3 gdb_65283=T pbc="F F F"
C       -0.13250000       1.51010000       0.07520000
C        0.01450000      -0.00250000       0.02920000
C        1.37910000      -0.60730000      -0.34720000
C        0.90040000      -0.70340000       1.05390000
C        1.44170000      -0.14350000       2.36480000
C        0.95090000      -1.48910000       2.94390000
O        0.53550000      -1.94380000       1.63030000
C       -1.15490000      -0.71630000      -0.41260000
N       -2.11240000      -1.26090000      -0.76650000
H        0.77990000       1.96910000       0.46620000
H       -0.31190000       1.91430000      -0.92560000
H       -0.96750000       1.80650000       0.71690000
H        1.36950000      -1.52190000      -0.92950000
H        2.17060000       0.09340000      -0.59390000
H        2.52310000       0.00290000       2.38830000
H        0.94430000       0.75030000       2.74420000
H        1.72060000      -2.14120000       3.36740000
H        0.10280000      -1.42530000       3.63350000
