22
Properties=species:S:1:pos:R:3 gdb_119169=T pbc="F F F"
C       -0.29420000       1.42510000       0.02500000
O       -0.07060000       0.03530000      -0.01190000
C        0.46420000      -0.47550000       1.19040000
C        0.71690000      -1.96670000       1.04900000
C       -0.20200000      -2.76910000       0.20390000
N        1.17160000      -2.46420000      -0.25610000
C        1.38100000      -2.56760000       2.25630000
C        2.17370000      -3.84150000       2.14640000
C        2.88680000      -2.53520000       2.38460000
H        0.63680000       1.98160000       0.21430000
H       -0.69120000       1.71860000      -0.94960000
H       -1.02250000       1.69890000       0.80390000
H        1.41220000       0.03470000       1.43260000
H       -0.22710000      -0.29020000       2.03060000
H       -0.37690000      -3.81230000       0.45120000
H       -1.02310000      -2.25620000      -0.28600000
H        1.11680000      -1.69630000      -0.92210000
H        0.81920000      -2.42800000       3.17730000
H        2.10890000      -4.55330000       2.96180000
H        2.26570000      -4.27390000       1.15710000
H        3.44440000      -2.12410000       1.54980000
H        3.32070000      -2.34400000       3.35980000
