22
Properties=species:S:1:pos:R:3 gdb_110531=T pbc="F F F"
C       -0.21960000       1.49780000       0.07870000
C        0.00830000      -0.01800000       0.07800000
C        0.67170000      -0.51670000      -1.20250000
C        0.86860000      -2.00680000      -1.48190000
N       -0.33980000      -2.57670000      -2.19950000
C       -1.26910000      -1.41300000      -2.36920000
C       -0.06420000      -0.48650000      -2.58030000
C        0.71270000      -1.82250000      -2.94350000
C        1.44920000      -2.31280000      -4.14240000
H        0.72380000       2.03980000      -0.05300000
H       -0.88880000       1.80040000      -0.73410000
H       -0.66770000       1.83340000       1.01880000
H        0.64800000      -0.29330000       0.92700000
H       -0.94240000      -0.53650000       0.24330000
H        1.64330000      -0.02100000      -1.32580000
H        1.47140000      -2.72700000      -0.94230000
H       -1.84840000      -1.57320000      -3.28250000
H       -1.95380000      -1.22270000      -1.53530000
H       -0.12050000       0.43140000      -3.16360000
H        2.34780000      -1.71440000      -4.32930000
H        1.75500000      -3.35280000      -3.99180000
H        0.82480000      -2.27190000      -5.04210000
