23
Properties=species:S:1:pos:R:3 gdb_101036=T pbc="F F F"
C        0.18410000       1.44450000       0.13370000
O       -0.19270000       0.11640000      -0.14260000
C        0.79320000      -0.65950000      -0.80890000
C        1.92580000      -1.08980000       0.12760000
C        0.08460000      -1.87430000      -1.40790000
C       -0.97530000      -2.57890000      -0.61890000
C       -1.34890000      -1.79110000      -1.86090000
O        0.94130000      -2.72650000      -2.12240000
C        1.29370000      -2.27250000      -3.41620000
H        1.00290000       1.50900000       0.86450000
H        0.49450000       1.97630000      -0.77950000
H       -0.69230000       1.94610000       0.55180000
H        1.21600000      -0.05830000      -1.63250000
H        1.51320000      -1.61230000       0.99590000
H        2.59940000      -1.77150000      -0.39710000
H        2.50780000      -0.23320000       0.47890000
H       -0.98790000      -3.66040000      -0.68710000
H       -1.24910000      -2.16230000       0.34270000
H       -1.87290000      -0.85340000      -1.72650000
H       -1.61850000      -2.35810000      -2.74510000
H        0.40600000      -2.04650000      -4.02250000
H        1.93170000      -1.37800000      -3.38980000
H        1.85320000      -3.08190000      -3.89160000
