17
Properties=species:S:1:pos:R:3 gdb_44496=T pbc="F F F"
N       -0.02890000       1.20750000      -0.58310000
C       -0.00090000       0.06470000      -0.04620000
C       -1.26470000      -0.73510000       0.21180000
N       -1.08560000      -2.04550000       0.84120000
C       -0.05930000      -2.07710000       1.97180000
C        0.09590000      -3.58420000       1.66930000
C        0.09340000      -2.85580000       0.30690000
C        1.06230000      -1.81630000       0.93110000
O        1.16290000      -0.53460000       0.34080000
H        0.91780000       1.58350000      -0.67210000
H       -1.93160000      -0.13660000       0.84110000
H       -1.78630000      -0.87640000      -0.74050000
H       -0.23880000      -1.58180000       2.92690000
H        1.02390000      -4.06630000       1.98000000
H       -0.79300000      -4.18140000       1.86710000
H        0.09400000      -3.27780000      -0.69900000
H        2.08380000      -2.12220000       1.16790000
