16
Properties=species:S:1:pos:R:3 gdb_23452=T pbc="F F F"
O       -0.11780000       1.32990000      -0.02750000
N        0.02180000      -0.06460000       0.03530000
C       -1.11670000      -0.65070000      -0.00590000
C       -2.47080000      -0.08390000      -0.07740000
C       -3.38020000      -1.07480000      -0.01050000
C       -2.74680000      -2.41950000       0.04720000
C       -1.91270000      -2.79320000      -1.17150000
O       -2.04550000      -2.21050000      -2.41930000
C       -1.23610000      -2.14060000       0.02150000
H        0.79670000       1.62720000       0.01980000
H       -2.66660000       0.97390000      -0.17480000
H       -4.45510000      -0.93770000      -0.03990000
H       -3.19450000      -3.20650000       0.64370000
H       -1.71170000      -3.85310000      -1.28870000
H       -2.30880000      -1.28920000      -2.30120000
H       -0.51820000      -2.71670000       0.59120000
