21
Properties=species:S:1:pos:R:3 gdb_91911=T pbc="F F F"
C       -0.03600000       1.53760000       0.03780000
C        0.02800000       0.00450000       0.00980000
C        0.66390000      -0.51920000      -1.28820000
C        0.83840000      -2.03420000      -1.25050000
O        1.26630000      -2.44910000      -2.54100000
C        1.83680000      -2.45430000      -0.15950000
C        1.63340000      -1.71020000       1.14920000
O        2.18740000      -0.38780000       1.21440000
C        0.76290000      -0.52390000       1.22770000
H        0.97250000       1.96280000       0.03120000
H       -0.57430000       1.92250000      -0.83410000
H       -0.54820000       1.89880000       0.93590000
H       -0.99900000      -0.38570000       0.07300000
H        0.03660000      -0.25460000      -2.14520000
H        1.64170000      -0.04950000      -1.44220000
H       -0.14230000      -2.48540000      -1.01780000
H        1.40420000      -3.40160000      -2.51940000
H        1.76240000      -3.53400000       0.02060000
H        2.85200000      -2.25630000      -0.52350000
H        1.79420000      -2.28860000       2.05930000
H        0.30500000      -0.28170000       2.18920000
