17
Properties=species:S:1:pos:R:3 gdb_104942=T pbc="F F F"
O        0.13960000       1.30580000      -0.37920000
C       -0.01100000       0.00960000       0.16080000
C       -1.43680000      -0.52400000       0.04350000
C       -1.85890000      -1.15100000      -1.27820000
C       -1.62880000      -2.03030000      -0.08660000
C       -2.40690000       0.23460000       0.77630000
C       -3.18040000       0.92290000       1.40820000
C       -4.06240000       1.68020000       2.11360000
C       -4.84310000       2.35590000       2.74080000
H       -0.45410000       1.89140000       0.10450000
H        0.66050000      -0.63940000      -0.41060000
H        0.30290000      -0.02820000       1.21510000
H       -2.87850000      -0.98750000      -1.60560000
H       -1.11920000      -1.14140000      -2.07100000
H       -0.73060000      -2.63810000      -0.05440000
H       -2.48840000      -2.46660000       0.40750000
H       -5.53170000       2.94720000       3.29140000
