20
Properties=species:S:1:pos:R:3 gdb_112183=T pbc="F F F"
C        0.12750000       1.64870000       0.01360000
C       -0.25590000       0.17960000      -0.19700000
C        0.66070000      -0.51760000      -1.17970000
O        2.03910000      -0.63960000      -0.64890000
C        2.05820000      -1.98440000      -0.85840000
O        2.94910000      -2.75190000      -0.67060000
C        0.61950000      -2.06200000      -1.39610000
C       -0.33510000      -2.88170000      -0.52770000
N        0.63250000      -2.44160000      -2.80700000
H        1.15050000       1.72950000       0.39150000
H        0.07040000       2.21070000      -0.92480000
H       -0.54130000       2.12820000       0.73380000
H       -0.23770000      -0.34930000       0.76190000
H       -1.28240000       0.10850000      -0.57990000
H        0.70540000       0.00900000      -2.13680000
H       -0.30290000      -2.59630000       0.52730000
H       -1.36650000      -2.76590000      -0.87980000
H       -0.06700000      -3.94030000      -0.59570000
H        1.15740000      -3.30600000      -2.91280000
H       -0.31280000      -2.63730000      -3.12600000
