23
Properties=species:S:1:pos:R:3 gdb_78447=T pbc="F F F"
C       -0.03030000       1.49400000       0.09970000
C       -0.05080000      -0.02040000       0.04240000
C        1.16740000      -0.70740000      -0.53090000
C        0.88760000      -0.76030000       0.96780000
C        0.80000000      -2.28910000       1.16440000
C        2.06260000      -2.72880000       0.34120000
C        1.17590000      -2.21800000      -0.84960000
C       -0.04090000      -2.78460000      -0.05330000
C       -0.31480000      -4.28260000      -0.15730000
H        0.97870000       1.86980000       0.30140000
H       -0.36370000       1.93010000      -0.84850000
H       -0.68860000       1.86880000       0.89120000
H       -1.03820000      -0.42320000      -0.15610000
H        1.96200000      -0.09460000      -0.94470000
H        1.47200000      -0.18730000       1.68080000
H        0.60790000      -2.65610000       2.17420000
H        2.99210000      -2.18600000       0.53380000
H        2.25450000      -3.80240000       0.33910000
H        1.36510000      -2.51290000      -1.88320000
H       -0.99310000      -2.27600000      -0.21310000
H        0.56930000      -4.90810000      -0.01440000
H       -1.05520000      -4.58450000       0.59230000
H       -0.73140000      -4.52330000      -1.14210000
