21
Properties=species:S:1:pos:R:3 gdb_119530=T pbc="F F F"
O       -0.13180000       1.46370000      -0.13100000
C       -0.02430000       0.05000000      -0.21200000
C       -1.36310000      -0.54430000       0.21710000
C       -1.38460000      -2.05560000       0.16820000
C       -1.67360000      -2.74650000      -1.14340000
C       -2.67990000      -2.83910000      -0.00970000
C       -2.54400000      -4.04520000       0.85540000
C       -1.36470000      -4.07290000       1.48050000
C       -0.53630000      -2.84080000       1.18120000
H        0.71040000       1.84510000      -0.39480000
H        0.21190000      -0.27690000      -1.23750000
H        0.77930000      -0.32510000       0.44220000
H       -1.58750000      -0.19440000       1.23280000
H       -2.14300000      -0.13440000      -0.43520000
H       -1.92650000      -2.10760000      -1.98460000
H       -1.12740000      -3.64720000      -1.40570000
H       -3.63890000      -2.34360000      -0.12060000
H       -3.30990000      -4.80980000       0.92140000
H       -1.00770000      -4.87390000       2.11790000
H        0.45660000      -3.09660000       0.78900000
H       -0.36130000      -2.24800000       2.09110000
