15
Properties=species:S:1:pos:R:3 gdb_21237=T pbc="F F F"
C        0.04620000       1.43070000      -0.01650000
O        0.02570000       0.00480000       0.01360000
C        0.59830000      -0.60540000      -1.03850000
C        0.69450000      -1.97220000      -1.21750000
C        0.24330000      -3.12580000      -0.39160000
N        1.34390000      -2.05190000      -2.41070000
N        1.62790000      -0.84870000      -2.92800000
N        1.16810000       0.04210000      -2.08310000
H        1.07300000       1.80950000      -0.04170000
H       -0.48710000       1.81400000      -0.89230000
H       -0.45180000       1.75420000       0.89860000
H       -0.48120000      -3.75550000      -0.92110000
H        1.07840000      -3.76540000      -0.08330000
H       -0.23980000      -2.74810000       0.51190000
H        1.61910000      -2.87810000      -2.91800000
