12
Properties=species:S:1:pos:R:3 gdb_129031=T pbc="F F F"
N        0.04720000       1.32870000       0.43680000
C       -0.00970000       0.10800000       0.10890000
C       -1.26820000      -0.58020000      -0.19270000
C       -1.41320000      -1.56510000      -1.08460000
C       -0.40360000      -2.00580000      -2.07450000
O       -0.70150000      -2.69000000      -3.01650000
O        0.87590000      -1.52230000      -1.98360000
N        1.61850000      -1.45150000      -0.64740000
N        1.18300000      -0.71340000       0.19490000
H        1.00040000       1.60120000       0.69020000
H       -2.12120000      -0.22460000       0.37640000
H       -2.38150000      -2.03000000      -1.23190000
