21
Properties=species:S:1:pos:R:3 gdb_91366=T pbc="F F F"
O        0.29950000       1.34030000      -0.28430000
C        0.07330000      -0.02470000      -0.02790000
C        0.68690000      -0.57480000       1.30790000
C       -0.48070000      -1.35420000       1.95010000
C       -1.50000000      -0.33590000       2.50400000
C       -2.14890000       0.25500000       1.21120000
O       -2.02130000       1.67400000       1.08090000
C       -1.41020000      -0.47840000       0.06940000
C       -1.23640000      -1.87610000       0.70150000
H       -0.34080000       1.83160000       0.24870000
H        0.52550000      -0.55620000      -0.87290000
H        1.54410000      -1.22560000       1.11070000
H        1.03940000       0.25190000       1.93160000
H       -0.17350000      -2.10830000       2.67720000
H       -2.25220000      -0.82340000       3.13230000
H       -1.02480000       0.45050000       3.10010000
H       -3.21610000      -0.00340000       1.17000000
H       -2.37150000       2.08480000       1.87710000
H       -1.93760000      -0.42810000      -0.88450000
H       -0.64080000      -2.55160000       0.08040000
H       -2.18420000      -2.36880000       0.94200000
