21
Properties=species:S:1:pos:R:3 gdb_70891=T pbc="F F F"
C       -0.03230000       1.49170000       0.04340000
C        0.01890000      -0.00790000      -0.04330000
C        0.20920000      -0.76860000      -1.35170000
C        0.08140000      -2.19130000      -0.75070000
C        0.03630000      -3.37820000      -1.67820000
C        1.15200000      -2.15480000       0.37190000
C        0.62420000      -0.90080000       1.05170000
C       -0.86210000      -0.93360000       0.76550000
O       -1.14890000      -2.08750000       0.00280000
H        0.91950000       1.94540000      -0.25760000
H       -0.81560000       1.90160000      -0.60490000
H       -0.24310000       1.82280000       1.06600000
H       -0.58310000      -0.56230000      -2.07890000
H        1.18340000      -0.59760000      -1.82050000
H        0.96760000      -3.45490000      -2.24720000
H       -0.09950000      -4.30450000      -1.11230000
H       -0.79330000      -3.28440000      -2.38510000
H        1.10030000      -3.04300000       1.00910000
H        2.16680000      -2.05080000      -0.02350000
H        1.03640000      -0.49360000       1.96590000
H       -1.64760000      -0.62570000       1.44200000
