19
Properties=species:S:1:pos:R:3 gdb_28932=T pbc="F F F"
N        0.26450000       1.26360000      -0.33490000
C        0.05040000      -0.11080000      -0.13580000
C       -1.10650000      -0.85320000      -0.06260000
C       -0.72950000      -2.18110000       0.30140000
C        0.63280000      -2.20800000       0.42840000
N        1.11640000      -0.93490000       0.15490000
C        2.46970000      -0.49370000       0.28140000
C        3.58030000      -1.39840000      -0.16950000
C        3.26690000      -0.15130000      -0.95810000
H        0.96030000       1.45270000      -1.04890000
H       -0.59880000       1.72510000      -0.59130000
H       -2.10370000      -0.48630000      -0.25330000
H       -1.39220000      -3.02220000       0.43730000
H        1.31360000      -3.00330000       0.68100000
H        2.65690000       0.12130000       1.15810000
H        4.48270000      -1.42450000       0.42980000
H        3.30410000      -2.34710000      -0.61360000
H        2.77840000      -0.28650000      -1.91680000
H        3.95250000       0.68710000      -0.90680000
