20
Properties=species:S:1:pos:R:3 gdb_75159=T pbc="F F F"
C       -0.92850000       1.16510000       0.40570000
C       -0.01120000       0.06320000      -0.03940000
C       -0.12860000      -0.55950000      -1.21350000
C        0.80960000      -1.66850000      -1.59020000
O        0.67610000      -2.83990000      -0.76350000
C        0.92470000      -2.75350000       0.57520000
C        0.93040000      -4.14480000       1.15230000
N        1.12830000      -1.75300000       1.32470000
C        1.09400000      -0.35130000       0.92210000
H       -0.36110000       2.07370000       0.64580000
H       -1.66630000       1.41500000      -0.36120000
H       -1.46260000       0.88320000       1.32180000
H       -0.92120000      -0.29700000      -1.90880000
H        0.61390000      -2.03300000      -2.60040000
H        1.85610000      -1.33610000      -1.55380000
H       -0.02620000      -4.63800000       0.95130000
H        1.70950000      -4.74980000       0.67730000
H        1.10210000      -4.09580000       2.22640000
H        2.07130000      -0.06360000       0.50250000
H        0.99700000       0.23090000       1.84490000
