21
Properties=species:S:1:pos:R:3 gdb_103458=T pbc="F F F"
C       -0.07610000       1.56190000       0.12880000
C       -0.03120000       0.04740000       0.04920000
C       -1.27560000      -0.58120000      -0.55720000
O       -1.45810000      -0.24790000      -1.92780000
C        1.24140000      -0.72170000      -0.29900000
C        2.44690000      -0.06010000       0.34640000
O        1.78740000      -0.03550000       1.64090000
C        0.67080000      -0.77340000       1.10880000
C        0.10810000      -1.82420000       2.01220000
H        0.73170000       1.94650000       0.75390000
H        0.01050000       2.02350000      -0.86200000
H       -1.02140000       1.89420000       0.57490000
H       -1.20730000      -1.67310000      -0.53770000
H       -2.15970000      -0.29700000       0.03630000
H       -1.59750000       0.70230000      -1.98410000
H        1.26320000      -1.46260000      -1.08770000
H        3.33390000      -0.70270000       0.38340000
H        2.73330000       0.94090000       0.00290000
H       -0.27120000      -1.36050000       2.93030000
H       -0.71700000      -2.36430000       1.54230000
H        0.88040000      -2.54590000       2.29610000
