18
Properties=species:S:1:pos:R:3 gdb_40664=T pbc="F F F"
C        0.61660000      -0.55980000      -1.25080000
O       -0.81180000      -0.49900000      -1.21300000
C       -0.08600000       0.00180000      -0.08990000
C       -0.29110000      -0.74300000       1.21660000
C       -0.12640000      -2.24810000       1.16850000
C        0.70820000      -2.65450000       2.12490000
C        1.25270000      -1.48040000       2.86660000
C        2.06290000      -0.53750000       2.04300000
N        0.63620000      -0.26750000       2.27870000
H        1.03970000      -1.56100000      -1.19260000
H        1.09260000       0.10780000      -1.96750000
H       -0.11220000       1.08710000       0.01440000
H       -1.30970000      -0.49250000       1.55080000
H       -0.63720000      -2.86900000       0.44340000
H        0.98390000      -3.67830000       2.34630000
H        1.36620000      -1.51380000       3.94680000
H        2.72710000       0.17760000       2.52090000
H        2.38620000      -0.88940000       1.06750000
