17
Properties=species:S:1:pos:R:3 gdb_33102=T pbc="F F F"
C        0.12320000       1.51860000       0.15780000
N        0.14890000       0.06480000       0.04370000
H        1.70130000      -2.18240000       0.40880000
H       -0.73650000      -0.31910000       0.35940000
C        0.41240000      -0.40300000      -1.31610000
C        0.51290000      -1.88830000      -1.34160000
C       -0.00700000      -2.82040000      -2.15180000
O        0.41690000      -4.07540000      -1.76840000
C        1.22470000      -3.94100000      -0.64860000
O        1.72250000      -4.85740000      -0.05570000
N        1.29680000      -2.58530000      -0.41890000
H        1.11710000       1.91910000      -0.07080000
H       -0.59850000       2.01180000      -0.51620000
H       -0.12130000       1.79870000       1.18590000
H       -0.33820000      -0.08200000      -2.05990000
H        1.36840000       0.04110000      -1.62970000
H       -0.64570000      -2.76200000      -3.01560000
