13
Properties=species:S:1:pos:R:3 gdb_49013=T pbc="F F F"
O       -0.73010000       1.07600000       0.83830000
C        0.12510000       0.84730000       0.02210000
C        1.33790000       1.70930000      -0.14380000
C        1.78410000       2.69780000       0.94050000
O        1.96080000       3.76090000      -0.03760000
C        1.49140000       2.93010000      -1.10150000
C        2.61870000       2.07440000      -1.71990000
O        3.41440000       2.14360000      -2.59170000
O        2.44010000       1.03770000      -0.81170000
H        0.07390000      -0.01140000      -0.67890000
H        0.98220000       2.94020000       1.64290000
H        2.70920000       2.44070000       1.46240000
H        0.74120000       3.39130000      -1.74470000
