19
Properties=species:S:1:pos:R:3 gdb_31515=T pbc="F F F"
C       -0.27710000       1.49190000      -0.17950000
C        0.14390000       0.02410000       0.00980000
C        0.91250000      -0.52510000      -1.14250000
C        2.18260000      -0.99790000      -1.27730000
C        2.32180000      -1.37420000      -2.65460000
O        3.41440000      -1.90190000      -3.28010000
C        1.13690000      -1.10800000      -3.27020000
C        0.65900000      -1.27290000      -4.66450000
O        0.26910000      -0.58510000      -2.33940000
H        0.59890000       2.13860000      -0.28860000
H       -0.89140000       1.60380000      -1.07690000
H       -0.85800000       1.84250000       0.67900000
H        0.76310000      -0.07810000       0.90690000
H       -0.75240000      -0.58800000       0.17700000
H        2.92610000      -1.07210000      -0.49750000
H        4.11580000      -2.01190000      -2.63270000
H       -0.20620000      -1.94420000      -4.72630000
H        0.36480000      -0.31690000      -5.11460000
H        1.46380000      -1.69910000      -5.26800000
