14
Properties=species:S:1:pos:R:3 gdb_28623=T pbc="F F F"
N        0.01920000       1.36720000       0.10240000
C        0.00640000       0.00860000       0.03980000
C       -1.21510000      -0.72160000       0.03010000
N       -1.24370000      -2.03200000       0.00400000
C       -0.05470000      -2.67500000      -0.01050000
C       -0.02600000      -4.15320000      -0.03800000
O       -0.99150000      -4.87640000      -0.04920000
C        1.13650000      -1.95310000      -0.00270000
N        1.18560000      -0.62120000       0.01870000
H        0.90280000       1.82400000      -0.05620000
H       -0.81630000       1.88740000      -0.10220000
H       -2.16790000      -0.19400000       0.04430000
H        1.00830000      -4.56950000      -0.04790000
H        2.09350000      -2.47110000      -0.01860000
