23
Properties=species:S:1:pos:R:3 gdb_60176=T pbc="F F F"
C       -0.06130000       1.50600000      -0.10720000
C        0.26170000       0.01330000      -0.16580000
O       -0.45810000      -0.71090000       0.83200000
C        0.02760000      -0.57820000      -1.56500000
C        0.40460000      -2.03940000      -1.64440000
O        0.39990000      -2.65790000      -2.93830000
C        1.64940000      -2.58300000      -2.22660000
C        2.70480000      -1.70250000      -2.86080000
C        2.16030000      -3.91830000      -1.72530000
H        0.57440000       2.07800000      -0.79070000
H       -1.10500000       1.68920000      -0.39290000
H        0.08740000       1.88500000       0.90740000
H        1.31410000      -0.13420000       0.10740000
H       -1.39820000      -0.56720000       0.67360000
H       -1.03900000      -0.47860000      -1.81660000
H        0.57300000       0.00690000      -2.31090000
H       -0.06600000      -2.64300000      -0.86710000
H        2.28020000      -0.78590000      -3.27260000
H        3.47830000      -1.43580000      -2.13200000
H        3.19420000      -2.23990000      -3.68060000
H        2.61500000      -4.48660000      -2.54440000
H        2.92270000      -3.77920000      -0.95100000
H        1.34520000      -4.51380000      -1.30750000
