18
Properties=species:S:1:pos:R:3 gdb_106848=T pbc="F F F"
C        0.06060000       1.53570000       0.22080000
C        0.00610000       0.04070000      -0.12610000
C       -1.39060000      -0.51080000      -0.08700000
C       -2.07630000      -1.00440000       1.16600000
C       -1.91370000      -1.94500000      -0.00060000
O       -2.93570000      -1.71780000      -0.96990000
C       -2.44800000      -0.36180000      -1.18350000
C       -1.24190000      -3.20310000       0.03940000
N       -0.67650000      -4.21200000       0.08400000
H        1.08910000       1.90560000       0.18200000
H       -0.53360000       2.12970000      -0.48170000
H       -0.32900000       1.72080000       1.22670000
H        0.43270000      -0.12520000      -1.12300000
H        0.63240000      -0.52480000       0.57380000
H       -1.41300000      -1.18160000       2.00670000
H       -3.08640000      -0.69640000       1.42160000
H       -3.23370000       0.38660000      -1.03650000
H       -2.01970000      -0.26700000      -2.18750000
