17
Properties=species:S:1:pos:R:3 gdb_102457=T pbc="F F F"
C       -0.17850000       1.33180000       0.07380000
O       -0.15670000      -0.08270000       0.16460000
C        0.71920000      -0.60520000       1.13220000
C        0.29650000      -2.07730000       1.32710000
O       -1.05960000      -2.14990000       1.69040000
C        2.18020000      -0.49830000       0.71110000
O        2.54930000      -0.16580000      -0.39020000
C        3.25100000      -0.82520000       1.76270000
O        3.00320000      -1.14140000       2.89680000
H        0.77650000       1.72810000      -0.28920000
H       -0.96310000       1.58930000      -0.64060000
H       -0.41590000       1.78850000       1.04580000
H        0.59890000      -0.09010000       2.09940000
H        0.50050000      -2.62340000       0.39240000
H        0.88120000      -2.52440000       2.13360000
H       -1.53390000      -1.61740000       1.03980000
H        4.28230000      -0.72820000       1.36240000
