17
Properties=species:S:1:pos:R:3 gdb_67691=T pbc="F F F"
C       -0.09520000       1.50290000       0.03560000
C        0.05510000       0.01390000      -0.00850000
C        0.05870000      -0.90430000      -1.17180000
C        1.28120000      -1.81340000      -1.09460000
O        1.84780000      -1.56970000       0.19690000
C        0.85330000      -0.90570000       0.96000000
C       -0.46510000      -1.72950000       1.10030000
O       -0.92250000      -2.41000000       1.97660000
C       -1.04430000      -1.10220000      -0.12340000
H        0.86810000       1.99500000      -0.13910000
H       -0.79240000       1.85160000      -0.73250000
H       -0.47100000       1.83870000       1.00760000
H       -0.28710000      -0.55210000      -2.13740000
H        1.01690000      -2.87330000      -1.20390000
H        2.02800000      -1.55810000      -1.85490000
H        1.29600000      -0.50430000       1.87070000
H       -2.09280000      -1.01140000      -0.38170000
