15
Properties=species:S:1:pos:R:3 gdb_80692=T pbc="F F F"
O       -0.02510000       1.45500000      -0.44810000
C       -0.07180000       0.10600000      -0.12600000
C       -1.40820000      -0.51080000       0.18760000
N       -2.54750000       0.14030000      -0.37850000
C       -2.36320000       0.23710000      -1.72910000
C       -3.30740000       1.01110000      -2.56500000
O       -4.20330000       1.67370000      -2.09760000
N       -1.36050000      -0.41630000      -2.22440000
C       -0.62570000      -0.92140000      -1.10200000
H        0.38320000       1.54390000      -1.31690000
H        0.75560000      -0.26330000       0.47820000
H       -1.56720000      -1.12710000       1.06460000
H       -3.14360000       0.78330000       0.11700000
H       -3.11350000       0.92980000      -3.65120000
H       -0.10050000      -1.85980000      -1.23470000
