17
Properties=species:S:1:pos:R:3 gdb_88895=T pbc="F F F"
C        1.76330000       1.05550000       0.39430000
C        0.55350000       0.20480000       0.07910000
C        0.47040000      -1.23100000       0.47590000
N       -0.41130000      -0.24140000       1.08960000
C       -0.28600000       0.12440000       2.50190000
C        0.90710000      -0.30190000       3.23580000
C        1.87160000      -0.69700000       3.84990000
C        2.96240000      -1.13140000       4.54650000
N        3.89180000      -1.50080000       5.13770000
H        2.31090000       0.69940000       1.26890000
H        2.45070000       1.04650000      -0.45790000
H        1.47630000       2.09870000       0.56960000
H        0.05190000       0.49210000      -0.84460000
H       -0.02040000      -1.96460000      -0.15820000
H        1.29430000      -1.62170000       1.06970000
H       -0.38620000       1.21350000       2.58640000
H       -1.15320000      -0.30200000       3.02370000
