20
Properties=species:S:1:pos:R:3 gdb_18126=T pbc="F F F"
C       -0.05190000       1.56930000      -0.02480000
C        1.44260000       1.93790000       0.01370000
C        2.12470000       0.86910000      -0.86710000
C        3.45810000       0.27860000      -0.36550000
O        3.39930000      -1.11340000      -0.64220000
C        2.06550000      -1.51390000      -0.36210000
C        1.16270000      -0.36890000      -0.86440000
C       -0.03930000       0.03020000       0.01830000
H       -0.62850000       2.01920000       0.78950000
H       -0.49790000       1.91340000      -0.96640000
H        1.63990000       2.95960000      -0.32310000
H        1.81150000       1.86360000       1.04490000
H        2.24940000       1.24260000      -1.88690000
H        4.34370000       0.67870000      -0.86620000
H        3.56860000       0.45100000       0.71940000
H        1.89580000      -2.47190000      -0.86040000
H        1.92790000      -1.66120000       0.72340000
H        0.82910000      -0.58470000      -1.88280000
H        0.12660000      -0.30580000       1.05010000
H       -0.98130000      -0.41470000      -0.31470000
