17
Properties=species:S:1:pos:R:3 gdb_78820=T pbc="F F F"
C       -0.20760000       1.40310000       0.06420000
C        0.05520000      -0.09770000       0.01680000
C        0.94550000      -0.51980000      -1.15540000
C        2.17840000      -0.41060000      -0.34490000
C        1.24040000      -0.55880000       0.91470000
C        1.33280000      -2.07220000       0.62260000
C        0.15840000      -2.92140000       0.82080000
N       -0.77470000      -3.58220000       0.99060000
N        1.72650000      -1.76150000      -0.79790000
H        0.72120000       1.97500000      -0.03880000
H       -0.87970000       1.70790000      -0.74440000
H       -0.67820000       1.68470000       1.01150000
H       -0.87910000      -0.65370000       0.15070000
H        0.80250000      -0.35300000      -2.21500000
H        3.17060000      -0.01830000      -0.51840000
H        1.38020000      -0.15840000       1.91660000
H        2.19620000      -2.53850000       1.10440000
