19
Properties=species:S:1:pos:R:3 gdb_96509=T pbc="F F F"
C       -0.05250000       1.53830000       0.06580000
C       -0.00150000       0.00260000       0.00820000
C        0.77790000      -0.48690000      -1.23090000
O        1.24840000      -1.82480000      -1.10150000
C        2.57500000      -1.95320000      -0.61690000
C        2.66190000      -1.72980000       0.89310000
O        2.02550000      -0.48400000       1.20940000
C        0.64540000      -0.58050000       1.25100000
O        0.06930000      -1.07850000       2.17290000
H        0.95220000       1.95450000       0.18650000
H       -0.47990000       1.93970000      -0.85880000
H       -0.67120000       1.87990000       0.89980000
H       -1.02050000      -0.39440000      -0.01320000
H        0.11380000      -0.47150000      -2.10200000
H        1.61840000       0.19000000      -1.43470000
H        2.90500000      -2.96820000      -0.86480000
H        3.23580000      -1.24030000      -1.13250000
H        2.17600000      -2.54000000       1.44810000
H        3.70310000      -1.65220000       1.21850000
