17
Properties=species:S:1:pos:R:3 gdb_48482=T pbc="F F F"
O        0.28610000       0.04950000       0.56530000
C        0.18010000       1.19190000       0.21310000
C        1.39680000       2.07000000      -0.15070000
C        1.60160000       3.12240000       1.00010000
C        2.67470000       2.45780000       1.87150000
C        3.55060000       1.76180000       0.82000000
N        2.62280000       1.27980000      -0.22070000
C        1.07940000       2.74320000      -1.42310000
N        0.78860000       3.27490000      -2.40740000
H       -0.79960000       1.70650000       0.14630000
H        1.96700000       4.05690000       0.56670000
H        0.66750000       3.34460000       1.52330000
H        3.21670000       3.18190000       2.48480000
H        2.22130000       1.71620000       2.53780000
H        4.25710000       2.47670000       0.37950000
H        4.13330000       0.92700000       1.21670000
H        2.36910000       0.31050000      -0.05320000
