13
Properties=species:S:1:pos:R:3 gdb_129569=T pbc="F F F"
N        0.01470000       1.52290000      -0.02310000
C        0.00180000       0.06790000       0.04250000
C        0.59010000      -0.59780000      -1.14780000
N        1.04070000      -1.05700000      -2.10800000
C        0.70890000      -0.42430000       1.27980000
N        1.58000000       0.30200000       1.92380000
O        1.98900000      -0.53560000       2.96390000
C        1.30680000      -1.67220000       2.81470000
N        0.50020000      -1.68050000       1.80220000
H        0.96940000       1.86650000       0.02300000
H       -0.38030000       1.83150000      -0.90540000
H       -1.03740000      -0.27430000       0.11450000
H        1.48590000      -2.45400000       3.53790000
