18
Properties=species:S:1:pos:R:3 gdb_128521=T pbc="F F F"
C       -0.16120000       1.44810000       0.06990000
O        0.13690000       0.06600000      -0.09930000
C        0.68730000      -0.53820000       1.00180000
C        2.00630000      -0.94580000       1.09230000
N        3.07860000      -0.75950000       0.21700000
N        2.11400000      -1.56280000       2.29320000
N        0.94340000      -1.59030000       2.98770000
C        0.06880000      -0.96400000       2.20600000
C       -1.35880000      -0.80370000       2.61900000
H        0.73610000       2.01980000       0.34070000
H       -0.54690000       1.80700000      -0.88750000
H       -0.92310000       1.60480000       0.84360000
H        2.74190000      -0.33100000      -0.63820000
H        3.54960000      -1.62580000      -0.02260000
H        2.94190000      -1.94970000       2.71110000
H       -1.59080000       0.23170000       2.89640000
H       -2.03770000      -1.08160000       1.80600000
H       -1.56650000      -1.43810000       3.48350000
