18
Properties=species:S:1:pos:R:3 gdb_73109=T pbc="F F F"
C       -0.03590000       1.50270000      -0.05140000
C       -0.03890000      -0.01560000       0.01850000
C       -1.35020000      -0.73710000       0.45950000
C       -0.51470000      -1.66530000       1.39130000
C        0.72230000      -0.75930000       1.16210000
O        1.86660000      -1.37790000       0.58810000
C        1.77420000      -1.31980000      -0.78200000
O        2.58650000      -1.79930000      -1.52140000
N        0.61630000      -0.64900000      -1.11010000
H        0.98120000       1.88540000      -0.18320000
H       -0.64570000       1.85780000      -0.89060000
H       -0.45260000       1.93430000       0.86390000
H       -2.01950000      -0.07100000       1.01020000
H       -1.91250000      -1.22210000      -0.34020000
H       -0.85720000      -1.75600000       2.42360000
H       -0.35410000      -2.66580000       0.98540000
H        1.03910000      -0.15910000       2.01640000
H        0.49790000      -0.34350000      -2.06200000
