12
Properties=species:S:1:pos:R:3 gdb_8731=T pbc="F F F"
O        0.01590000       1.46600000       0.12580000
C        0.07110000       0.06510000       0.15630000
C        0.46440000      -0.53860000      -1.12520000
C        0.82810000      -1.02890000      -2.16030000
C        1.10230000      -0.40290000       1.19520000
O        1.92680000       0.35340000       1.64750000
C        1.05620000      -1.85900000       1.66240000
O        0.13610000      -2.59040000       1.41410000
H        0.87810000       1.77900000       0.43820000
H       -0.91330000      -0.32300000       0.44650000
H        1.12570000      -1.45890000      -3.08530000
H        1.92700000      -2.14790000       2.28560000
