12
Properties=species:S:1:pos:R:3 gdb_130488=T pbc="F F F"
O       -0.01970000       1.24950000       0.00900000
C        1.12280000       1.96090000       0.00190000
N        2.33320000       1.52280000      -0.01210000
C        2.41330000       0.16110000      -0.02020000
C        3.43260000      -0.74130000      -0.03470000
C        2.76880000      -2.03070000      -0.03530000
N        1.44870000      -1.99890000      -0.02250000
C        1.17330000      -0.64890000      -0.01260000
N       -0.01840000      -0.14800000       0.00150000
H        0.89250000       3.02130000       0.00970000
H        4.49550000      -0.55710000      -0.04390000
H        3.28430000      -2.98600000      -0.04540000
