19
Properties=species:S:1:pos:R:3 gdb_1300=T pbc="F F F"
C        0.02290000       1.37530000      -0.03240000
O        0.03310000      -0.03050000      -0.00930000
C        0.66240000      -0.55350000       1.14200000
C        0.63720000      -2.07360000       1.05760000
C        1.32810000      -2.75070000       2.24680000
C        1.23740000      -4.27510000       2.17640000
O        2.68330000      -2.32030000       2.38110000
H        1.04250000       1.79330000      -0.01730000
H       -0.47190000       1.68610000      -0.95610000
H       -0.52860000       1.79610000       0.82400000
H        1.70090000      -0.19640000       1.21670000
H        0.13930000      -0.21280000       2.05350000
H       -0.40340000      -2.41260000       0.99360000
H        1.12530000      -2.38550000       0.12370000
H        0.85000000      -2.41040000       3.17460000
H        0.19590000      -4.61230000       2.18420000
H        1.70070000      -4.64880000       1.25450000
H        1.75670000      -4.72500000       3.02690000
H        3.16430000      -2.63530000       1.60730000
