15
Properties=species:S:1:pos:R:3 gdb_129855=T pbc="F F F"
N        0.11670000       1.39240000       0.12880000
C       -0.01050000       0.00240000       0.02210000
C       -1.13670000      -0.79780000      -0.00090000
C       -0.63470000      -2.13500000      -0.00030000
C        0.75770000      -2.10120000       0.01280000
N        1.14190000      -0.76550000      -0.00520000
C        1.18620000      -3.43980000      -0.02260000
N        0.13150000      -4.25840000      -0.04480000
N       -0.96630000      -3.45170000      -0.03740000
H        0.65170000       1.79960000      -0.63150000
H       -0.78700000       1.84450000       0.17240000
H       -2.15610000      -0.45070000      -0.05130000
H        2.03140000      -0.40700000       0.29690000
H        2.18200000      -3.85600000      -0.02000000
H       -1.87410000      -3.87910000      -0.06800000
