16
Properties=species:S:1:pos:R:3 gdb_73664=T pbc="F F F"
O        0.19560000       1.29600000      -0.21960000
C        0.10540000      -0.07990000      -0.02740000
C        0.77770000      -0.85520000      -1.17460000
O        0.11860000      -2.10700000      -1.25980000
C       -1.25560000      -1.88420000      -0.96160000
C       -1.25820000      -0.83680000       0.13130000
O       -0.78400000      -1.37260000       1.41720000
C        0.36200000      -0.61670000       1.36730000
N        1.24960000      -0.38090000       2.22070000
H        0.40370000       1.70210000       0.62940000
H        0.64900000      -0.25590000      -2.09000000
H        1.84150000      -1.03800000      -1.01110000
H       -1.79950000      -1.49550000      -1.83860000
H       -1.69840000      -2.83600000      -0.65910000
H       -2.17050000      -0.25500000       0.26000000
H        1.07550000      -0.86830000       3.10110000
