18
Properties=species:S:1:pos:R:3 gdb_51187=T pbc="F F F"
N       -0.08720000       1.28230000       0.00900000
C       -0.05730000       0.02090000      -0.00450000
O       -1.21240000      -0.67820000       0.03130000
C       -1.09960000      -2.07160000       0.01150000
C       -0.60690000      -2.83500000      -1.25000000
C       -1.52030000      -3.95960000      -0.76240000
C       -1.45730000      -3.97680000       0.77490000
C       -0.50610000      -2.86240000       1.21120000
C       -2.36450000      -3.01050000       0.05280000
H        0.86130000       1.65070000      -0.02210000
H        0.83960000      -0.61030000      -0.04380000
H       -0.99910000      -2.37300000      -2.15970000
H        0.46860000      -3.02210000      -1.35150000
H       -1.85440000      -4.82620000      -1.31680000
H       -1.74560000      -4.85580000       1.33540000
H        0.57380000      -3.05080000       1.22030000
H       -0.82230000      -2.42120000       2.16000000
H       -3.42470000      -2.81430000       0.09850000
