15
Properties=species:S:1:pos:R:3 gdb_1288=T pbc="F F F"
N       -0.05170000       1.33520000      -0.15720000
C        0.03070000      -0.03300000       0.09030000
O        1.03240000      -0.55720000       0.54320000
N       -1.10860000      -0.72700000      -0.24000000
C       -1.11800000      -2.17680000      -0.24670000
C       -2.51940000      -2.69250000       0.03070000
O       -3.36540000      -2.17750000      -0.99350000
H        0.68050000       1.84910000       0.30940000
H       -0.96110000       1.76680000      -0.08330000
H       -1.79370000      -0.29110000      -0.83730000
H       -0.77420000      -2.57770000      -1.21150000
H       -0.41940000      -2.51800000       0.51960000
H       -2.51160000      -3.79290000       0.02790000
H       -2.84830000      -2.35160000       1.02350000
H       -4.27510000      -2.40380000      -0.78120000
