16
Properties=species:S:1:pos:R:3 gdb_124945=T pbc="F F F"
C       -0.00390000       1.53190000       0.12240000
C        0.05040000       0.04950000      -0.03560000
C        0.00320000      -0.73100000      -1.15920000
C       -0.11750000      -0.38790000      -2.60600000
N        0.09610000      -2.02030000      -0.67170000
C        0.09700000      -3.22580000      -1.39830000
O        0.18110000      -4.31390000      -0.91090000
N        0.19540000      -2.00760000       0.69800000
N        0.16750000      -0.77890000       1.06470000
H        0.90000000       1.90360000       0.61540000
H       -0.09670000       2.03560000      -0.84260000
H       -0.85600000       1.82550000       0.74350000
H        0.74410000      -0.73690000      -3.18570000
H       -1.01880000      -0.81670000      -3.05760000
H       -0.17500000       0.69600000      -2.72170000
H        0.00970000      -3.03540000      -2.48210000
