23
Properties=species:S:1:pos:R:3 gdb_112813=T pbc="F F F"
C       -0.09510000       1.63410000      -0.14010000
C        0.02970000       0.11820000       0.04810000
C       -1.32350000      -0.58640000       0.05180000
C       -2.14880000      -0.65720000      -1.26710000
C       -2.59530000      -2.08020000      -0.84800000
O       -2.59150000      -3.11230000      -1.82220000
C       -1.40760000      -2.14800000       0.14830000
C       -0.20710000      -2.92690000      -0.39570000
O       -0.46640000      -4.31850000      -0.43200000
H        0.88670000       2.11750000      -0.13860000
H       -0.58390000       1.87750000      -1.08970000
H       -0.69010000       2.08440000       0.66250000
H        0.66320000      -0.29480000      -0.74620000
H        0.54810000      -0.09040000       0.99320000
H       -1.94320000      -0.14980000       0.84440000
H       -2.92280000       0.09480000      -1.43990000
H       -1.49630000      -0.70720000      -2.14470000
H       -3.55640000      -2.05710000      -0.31740000
H       -3.35370000      -3.00570000      -2.39890000
H       -1.65270000      -2.55370000       1.13380000
H        0.08320000      -2.55240000      -1.38930000
H        0.65520000      -2.78760000       0.26530000
H       -1.21750000      -4.42490000      -1.02930000
