14
Properties=species:S:1:pos:R:3 gdb_3630=T pbc="F F F"
C       -0.01130000       1.56080000      -0.07200000
C        1.47330000       1.83630000       0.05610000
C        2.28770000       0.70930000      -0.56960000
C        2.09500000       0.77160000       0.92040000
N        1.14680000      -0.41140000       0.92230000
C        0.04500000       0.05260000       0.01820000
C        1.30450000      -0.47220000      -0.56820000
H       -0.59030000       2.00520000       0.74460000
H       -0.43180000       1.89770000      -1.02560000
H        1.88350000       2.83810000       0.06640000
H        3.16900000       0.84090000      -1.18030000
H        2.77690000       0.92260000       1.74600000
H       -0.85210000      -0.55520000       0.05440000
H        1.41820000      -1.41430000      -1.09150000
