21
Properties=species:S:1:pos:R:3 gdb_96457=T pbc="F F F"
C       -0.45980000       1.52820000      -0.00650000
C       -0.03440000       0.05720000      -0.00310000
O        0.55570000      -0.36410000      -1.24250000
C        1.61730000       0.41630000      -1.75760000
C        2.90990000       0.37310000      -0.94420000
O        2.76520000       0.95880000       0.34650000
C        2.26670000       0.05160000       1.28460000
C        1.28370000       0.56660000       2.28370000
C        0.82600000      -0.38080000       1.18550000
H        0.38800000       2.21440000       0.04690000
H       -1.02880000       1.74360000      -0.91590000
H       -1.10660000       1.72310000       0.85370000
H       -0.95200000      -0.54000000       0.03460000
H        1.82200000       0.00910000      -2.75540000
H        1.31630000       1.46520000      -1.88780000
H        3.26760000      -0.66250000      -0.85540000
H        3.67560000       0.95670000      -1.46950000
H        2.99820000      -0.69100000       1.60620000
H        1.33200000       0.19610000       3.30160000
H        1.01110000       1.61140000       2.19700000
H        0.63810000      -1.40480000       1.49540000
