18
Properties=species:S:1:pos:R:3 gdb_7645=T pbc="F F F"
C        0.34570000       1.16030000       0.03720000
C       -0.04880000      -0.28140000      -0.19070000
O        0.77330000      -1.11440000      -0.52730000
C       -1.50530000      -0.64770000       0.01630000
C       -2.09580000      -1.47690000      -1.17580000
C       -1.88440000      -2.78990000      -0.36190000
O       -0.76980000      -3.54880000      -0.73980000
C       -1.68740000      -1.91840000       0.91590000
H        1.41250000       1.29760000      -0.14190000
H       -0.23260000       1.81450000      -0.62600000
H        0.09690000       1.45750000       1.06280000
H       -2.08250000       0.22960000       0.31420000
H       -3.14910000      -1.23920000      -1.34370000
H       -1.55660000      -1.42750000      -2.12440000
H       -2.73350000      -3.47770000      -0.34140000
H       -0.01230000      -2.94080000      -0.75950000
H       -0.84040000      -2.20200000       1.54440000
H       -2.58790000      -1.84600000       1.53070000
