21
Properties=species:S:1:pos:R:3 gdb_96562=T pbc="F F F"
O       -0.01140000       1.48650000      -0.03690000
C        0.02880000       0.07000000      -0.00600000
C        0.93690000      -0.45070000       1.12140000
C        1.53350000      -1.83390000       0.84670000
O        0.61480000      -2.90940000       0.88450000
C       -0.39190000      -2.89120000      -0.10870000
C       -1.57670000      -1.98480000       0.25940000
C       -1.41540000      -0.46470000       0.04260000
O       -2.04540000       0.26120000       1.10980000
H       -0.70410000       1.73560000       0.58930000
H        0.46680000      -0.23530000      -0.96530000
H        1.76620000       0.26010000       1.21030000
H        0.40340000      -0.45070000       2.07850000
H        2.05080000      -1.81730000      -0.12910000
H        2.28120000      -2.07170000       1.60960000
H        0.03170000      -2.62880000      -1.09180000
H       -0.75220000      -3.92300000      -0.17830000
H       -2.46220000      -2.32930000      -0.28910000
H       -1.77780000      -2.14860000       1.32330000
H       -1.88260000      -0.17190000      -0.90820000
H       -2.99810000       0.16560000       1.02490000
