22
Properties=species:S:1:pos:R:3 gdb_96008=T pbc="F F F"
C        0.21680000       1.57170000      -0.15230000
C        0.03110000       0.08270000       0.11840000
O        0.33280000      -0.64950000      -1.07880000
C        1.34710000      -1.61670000      -0.83380000
C        2.09780000      -1.12360000       0.40060000
C        0.95490000      -0.51140000       1.22100000
N        1.41460000       0.47600000       2.18450000
C        0.55940000       0.69940000       3.34820000
C        1.84470000      -0.03810000       3.48070000
H        1.26730000       1.81310000      -0.33260000
H       -0.36140000       1.84750000      -1.03890000
H       -0.13100000       2.17200000       0.69280000
H       -1.02110000      -0.10660000       0.37330000
H        0.90070000      -2.60810000      -0.65150000
H        1.97380000      -1.69130000      -1.72820000
H        2.63010000      -1.91810000       0.92960000
H        2.81570000      -0.34020000       0.13780000
H        0.40810000      -1.33000000       1.72490000
H        0.47510000       1.72940000       3.68180000
H       -0.35700000       0.11660000       3.42860000
H        1.78490000      -1.11230000       3.65000000
H        2.71680000       0.44290000       3.91380000
