21
Properties=species:S:1:pos:R:3 gdb_39934=T pbc="F F F"
C       -0.28060000       1.46100000       0.03600000
C        1.16650000       1.06910000      -0.05590000
C        0.09520000      -0.01110000       0.01550000
C       -0.01240000      -0.76920000       1.28380000
C       -0.10970000      -2.09710000       1.35910000
C       -0.09100000      -3.01540000       0.16680000
C       -0.30280000      -2.30410000      -1.15930000
C       -1.54400000      -1.47680000      -1.38460000
C       -0.20150000      -0.79680000      -1.23240000
H       -0.64310000       1.88080000       0.96880000
H       -0.76070000       1.86270000      -0.85000000
H        1.67770000       1.20350000      -1.00370000
H        1.79830000       1.21520000       0.81350000
H       -0.00070000      -0.17860000       2.19780000
H       -0.17780000      -2.57060000       2.33530000
H        0.87600000      -3.54010000       0.14370000
H       -0.84350000      -3.80680000       0.29430000
H        0.06530000      -2.85080000      -2.02260000
H       -2.00640000      -1.49360000      -2.36560000
H       -2.24220000      -1.38430000      -0.55880000
H        0.22940000      -0.38100000      -2.13900000
