18
Properties=species:S:1:pos:R:3 gdb_69136=T pbc="F F F"
C       -0.04970000       1.50320000      -0.01930000
C       -0.02360000      -0.00500000       0.01430000
C       -0.84060000      -0.79180000       0.99100000
C        0.68270000      -0.79470000       1.11020000
C        1.50150000      -1.87440000       0.45470000
O        2.37580000      -2.51890000       0.98030000
C        1.20450000      -1.87270000      -1.03600000
N       -0.22730000      -2.10670000      -1.37640000
C        0.29050000      -0.73180000      -1.30100000
H        0.88020000       1.91120000      -0.43190000
H       -0.87900000       1.87040000      -0.63540000
H       -0.17620000       1.91420000       0.98660000
H       -1.35240000      -0.23640000       1.77030000
H       -1.34010000      -1.68810000       0.64980000
H        1.12240000      -0.32760000       1.98400000
H        1.97760000      -2.21970000      -1.71190000
H       -0.27410000      -2.40310000      -2.34900000
H        0.36020000      -0.14030000      -2.20780000
