25
Properties=species:S:1:pos:R:3 gdb_86538=T pbc="F F F"
C       -0.38890000       1.40910000       0.21060000
C       -0.13420000      -0.08800000       0.35960000
C        0.85850000      -0.67510000      -0.68780000
C        1.98280000      -0.63590000       0.38890000
C        0.88570000      -0.46060000       1.47560000
C        2.95250000      -1.82410000       0.51100000
C        3.82720000      -1.93570000      -0.74550000
C        3.81770000      -1.67280000       1.76500000
O        2.23100000      -3.04870000       0.70620000
H        0.55020000       1.97070000       0.14340000
H       -0.96870000       1.62460000      -0.69390000
H       -0.94700000       1.80080000       1.06820000
H       -1.09180000      -0.61390000       0.42240000
H        0.58680000      -1.69760000      -0.97140000
H        1.01510000      -0.09690000      -1.60300000
H        2.57580000       0.27870000       0.28060000
H        1.05980000       0.28690000       2.25480000
H        0.65140000      -1.41950000       1.94420000
H        4.44080000      -1.03980000      -0.88450000
H        4.49100000      -2.80190000      -0.66900000
H        3.21010000      -2.05550000      -1.64390000
H        3.19040000      -1.63610000       2.65980000
H        4.49650000      -2.52490000       1.86100000
H        4.41200000      -0.75530000       1.71970000
H        1.80390000      -3.27610000      -0.12590000
