15
Properties=species:S:1:pos:R:3 gdb_34134=T pbc="F F F"
C       -0.05960000      -1.15830000       0.12060000
C       -0.04540000       0.04320000       0.07590000
C       -0.00630000       1.46950000      -0.01270000
O       -0.66320000       2.28730000       1.02240000
C       -0.09110000       3.26320000       0.09000000
C        1.24000000       2.45090000      -0.04660000
C        1.69210000       2.55860000      -1.48660000
C        0.55820000       2.54560000      -2.19590000
C       -0.53700000       2.43060000      -1.15830000
H       -0.07610000      -2.21950000       0.16660000
H       -0.23870000       4.32250000       0.30660000
H        1.94150000       2.42660000       0.78480000
H        2.71450000       2.62010000      -1.83170000
H        0.42050000       2.59380000      -3.26680000
H       -1.59100000       2.38620000      -1.42500000
