19
Properties=species:S:1:pos:R:3 gdb_34280=T pbc="F F F"
C        0.01490000      -1.18080000       0.01290000
C        0.00970000       0.02170000      -0.00430000
C       -0.00270000       1.46920000      -0.01270000
C       -0.68130000       2.13490000       1.24880000
C       -0.16950000       3.60370000       1.18920000
C        0.73240000       3.60920000      -0.09150000
C        1.36880000       2.20650000       0.00400000
C       -0.20490000       3.40430000      -1.27100000
C       -0.64570000       2.14510000      -1.22650000
H        0.02310000      -2.24230000       0.02320000
H       -1.76850000       2.05110000       1.19910000
H       -0.34750000       1.62550000       2.15650000
H       -0.98020000       4.33230000       1.11830000
H        0.42340000       3.85070000       2.07500000
H        1.41270000       4.45850000      -0.15830000
H        1.92930000       2.03450000       0.92810000
H        1.98460000       1.94960000      -0.86020000
H       -0.53460000       4.18840000      -1.94130000
H       -1.39840000       1.67040000      -1.84200000
