17
Properties=species:S:1:pos:R:3 gdb_122807=T pbc="F F F"
O       -0.50820000       1.39770000      -0.91330000
C       -0.35810000       0.25360000      -0.10720000
C       -1.65930000      -0.51620000       0.05580000
O       -1.96870000      -1.13570000      -1.19680000
C       -3.30440000      -1.10630000      -1.58910000
C       -3.65030000       0.13790000      -2.39610000
O       -2.86830000       1.01790000      -2.67080000
C       -5.09280000       0.25100000      -2.90400000
O       -5.93090000      -0.58140000      -2.67690000
H       -1.01860000       1.14180000      -1.69440000
H        0.40460000      -0.43710000      -0.50350000
H       -0.01670000       0.59180000       0.87820000
H       -1.56370000      -1.29280000       0.82840000
H       -2.45510000       0.17900000       0.35330000
H       -3.50090000      -1.97610000      -2.23120000
H       -4.01290000      -1.19110000      -0.75070000
H       -5.27880000       1.17150000      -3.49530000
