18
Properties=species:S:1:pos:R:3 gdb_32853=T pbc="F F F"
C       -0.10860000       1.50420000      -0.02890000
C       -0.11000000      -0.01000000      -0.21070000
N       -1.35970000      -0.58060000       0.27600000
C       -1.61070000      -1.92950000       0.11470000
N       -2.81700000      -2.46010000       0.02210000
C       -2.60220000      -3.81410000      -0.04550000
O       -3.64350000      -4.67100000      -0.15070000
C       -1.27570000      -4.12630000      -0.00490000
N       -0.63960000      -2.87650000       0.08850000
H        0.84170000       1.92960000      -0.36200000
H       -0.90670000       1.96990000      -0.61770000
H       -0.26070000       1.76840000       1.02140000
H        0.07670000      -0.26480000      -1.26730000
H        0.71820000      -0.43790000       0.37000000
H       -2.18140000      -0.04110000       0.03900000
H       -4.43710000      -4.12300000      -0.14550000
H       -0.73160000      -5.05120000      -0.05620000
H        0.34710000      -2.72630000       0.19910000
