12
Properties=species:S:1:pos:R:3 gdb_21362=T pbc="F F F"
N       -0.05130000       1.37100000       0.01020000
C        1.27430000       1.83370000      -0.00010000
C        2.14980000       0.77900000      -0.01440000
C        1.33770000      -0.40120000      -0.01290000
C        0.01310000       0.01300000       0.00220000
N       -0.71910000      -1.11680000       0.00320000
N        0.14050000      -2.20510000      -0.01120000
N        1.36020000      -1.76810000      -0.02070000
H       -0.86910000       1.95260000       0.02190000
H        1.46300000       2.89550000       0.00390000
H        3.22490000       0.85320000      -0.02440000
H       -1.71050000      -1.28060000       0.01180000
