11
Properties=species:S:1:pos:R:3 gdb_444=T pbc="F F F"
O       -0.02380000      -0.05230000       0.00310000
C        0.00600000       1.15990000       0.01020000
N       -1.08330000       2.00750000       0.02820000
C       -0.72380000       3.40430000       0.03130000
C        0.78270000       3.34090000       0.01110000
C        1.19210000       2.07210000      -0.00150000
H       -2.02580000       1.65850000       0.03880000
H       -1.11480000       3.94240000      -0.84510000
H       -1.09160000       3.93250000       0.92370000
H        1.39450000       4.23340000       0.00770000
H        2.20340000       1.69240000      -0.01730000
