18
Properties=species:S:1:pos:R:3 gdb_37026=T pbc="F F F"
C        0.02290000       1.32100000      -0.04240000
C        1.40480000       0.72090000      -0.04110000
C        1.76480000       0.21050000       1.36430000
C        0.48870000      -0.70750000       1.35440000
C        0.17250000      -0.17840000      -0.04700000
N       -0.19510000      -0.96140000      -1.17070000
C        0.49930000      -0.74130000      -2.21370000
O        1.52260000       0.12610000      -2.41050000
C        2.24630000       0.69190000      -1.27800000
H       -0.34620000       1.83150000       0.84400000
H       -0.30940000       1.74930000      -0.98210000
H        2.68970000      -0.37130000       1.38050000
H        1.82090000       0.97230000       2.14820000
H        0.74570000      -1.76830000       1.35000000
H       -0.26750000      -0.52980000       2.12530000
H        0.28800000      -1.27010000      -3.14100000
H        2.58210000       1.67080000      -1.63530000
H        3.13230000       0.06680000      -1.11230000
