13
Properties=species:S:1:pos:R:3 gdb_123390=T pbc="F F F"
C       -0.00570000      -1.15820000      -0.00440000
C        0.02220000       0.04160000       0.00220000
C        0.01090000       1.49360000       0.01070000
O        1.37300000       1.96280000      -0.00230000
C        1.52210000       3.29180000       0.00330000
C        2.67770000       4.01270000      -0.00640000
O        2.34120000       5.30810000       0.00480000
N        0.94020000       5.37610000       0.02180000
N        0.48770000       4.19050000       0.02060000
H       -0.02720000      -2.22020000      -0.01020000
H       -0.52120000       1.88760000      -0.86380000
H       -0.50090000       1.87750000       0.90150000
H        3.72210000       3.75740000      -0.02030000
