21
Properties=species:S:1:pos:R:3 gdb_115333=T pbc="F F F"
C       -0.54550000       1.40060000      -0.04770000
C        0.22040000       0.08110000      -0.04180000
C        1.40230000       0.00580000      -1.01640000
O        2.20780000      -1.08080000      -0.56180000
C        1.91670000      -1.36080000       0.81880000
C        3.24580000      -1.42030000       1.56480000
O        4.11000000      -2.37200000       0.97630000
C        0.91400000      -0.28470000       1.28290000
O        1.53670000       0.89180000       1.78680000
H        0.10570000       2.23000000       0.23580000
H       -0.95590000       1.60440000      -1.04210000
H       -1.38240000       1.37330000       0.65720000
H       -0.46390000      -0.74320000      -0.27870000
H        1.09790000      -0.19780000      -2.04810000
H        1.97690000       0.94330000      -1.00070000
H        1.44250000      -2.35230000       0.87140000
H        3.69700000      -0.41740000       1.57100000
H        3.08660000      -1.73580000       2.60370000
H        4.11730000      -2.16320000       0.03400000
H        0.20820000      -0.69220000       2.01920000
H        1.92730000       0.69040000       2.64190000
