20
Properties=species:S:1:pos:R:3 gdb_66586=T pbc="F F F"
C       -0.00110000       1.49130000      -0.04690000
C        0.07390000      -0.00080000       0.01370000
C        0.37610000      -1.00820000      -1.03070000
C        0.49940000      -2.05860000       0.11760000
C       -1.04470000      -2.08390000       0.15170000
C       -1.53700000      -1.91330000       1.58840000
C       -0.37430000      -1.14330000       2.28910000
C        0.61700000      -0.88880000       1.14730000
N       -1.04900000      -0.78800000      -0.62910000
H        0.98960000       1.94150000       0.07920000
H       -0.40860000       1.81300000      -1.00940000
H       -0.65440000       1.88570000       0.74010000
H        0.73210000      -0.93770000      -2.05020000
H        1.13050000      -2.94380000       0.16810000
H       -1.54320000      -2.85840000      -0.43390000
H       -2.48030000      -1.35850000       1.60300000
H       -1.72160000      -2.88370000       2.06020000
H       -0.70820000      -0.21150000       2.75620000
H        0.08430000      -1.74890000       3.07800000
H        1.63500000      -0.62550000       1.44180000
