17
Properties=species:S:1:pos:R:3 gdb_112693=T pbc="F F F"
O       -0.11190000       1.45400000      -0.15210000
C        0.00300000       0.05260000      -0.04970000
C       -1.35220000      -0.63580000      -0.03490000
C       -1.32230000      -2.16610000       0.10210000
C       -2.59870000      -2.43920000       0.89580000
O       -2.55760000      -3.59160000       1.69050000
C       -2.72240000      -1.17430000       1.74470000
O       -3.29310000      -1.08520000       2.79530000
O       -2.06290000      -0.15890000       1.14870000
H       -0.62520000       1.75180000       0.60760000
H        0.56590000      -0.28640000      -0.92620000
H        0.56320000      -0.25190000       0.84880000
H       -1.93320000      -0.31300000      -0.90630000
H       -1.28330000      -2.66940000      -0.86480000
H       -0.46200000      -2.48550000       0.70060000
H       -3.46710000      -2.45430000       0.21300000
H       -3.05320000      -3.38170000       2.49500000
