15
Properties=species:S:1:pos:R:3 gdb_32509=T pbc="F F F"
O       -0.03150000       1.39480000       0.00810000
C        0.00180000      -0.02290000       0.00170000
C       -1.40340000      -0.52580000       0.01210000
C       -2.54360000       0.20600000       0.02410000
O       -3.63990000      -0.60850000       0.03070000
C       -3.19080000      -1.88050000       0.02280000
C       -1.82320000      -1.91140000       0.01130000
C       -0.98630000      -3.05020000       0.00070000
C       -0.24580000      -4.00020000      -0.00840000
H        0.87460000       1.71510000       0.00110000
H        0.52510000      -0.41120000      -0.88740000
H        0.54090000      -0.41890000       0.87800000
H       -2.73400000       1.26430000       0.02910000
H       -3.93680000      -2.65750000       0.02650000
H        0.39680000      -4.84520000      -0.01640000
