18
Properties=species:S:1:pos:R:3 gdb_32925=T pbc="F F F"
C        0.10250000       1.51730000      -0.04780000
C       -0.11250000       0.01090000      -0.14280000
N        0.69410000      -0.55430000      -1.21910000
C        0.79910000      -1.91130000      -1.32840000
N        0.49850000      -2.80860000      -0.43520000
C        0.87050000      -4.00580000      -1.04320000
C        1.36730000      -3.78540000      -2.27730000
N        1.85900000      -4.60980000      -3.27980000
O        1.32290000      -2.38810000      -2.47770000
H        1.15440000       1.75160000       0.13950000
H       -0.19900000       2.02200000      -0.97330000
H       -0.49720000       1.93520000       0.76540000
H        0.19240000      -0.48520000       0.78210000
H       -1.18050000      -0.21650000      -0.28080000
H        0.65510000      -0.07070000      -2.10460000
H        0.74940000      -4.95650000      -0.54850000
H        1.30850000      -4.57120000      -4.13190000
H        2.82560000      -4.41050000      -3.51730000
