16
Properties=species:S:1:pos:R:3 gdb_19920=T pbc="F F F"
O        0.06970000       1.42980000       0.32710000
C        0.15630000       0.06230000      -0.06660000
C       -1.23710000      -0.57300000      -0.11930000
C       -1.89920000      -1.32820000      -1.24430000
C       -0.96910000      -2.40170000      -1.89300000
O        0.32310000      -2.36490000      -1.26330000
C       -0.75370000      -3.04790000      -0.60530000
C       -1.66000000      -2.00560000       0.11170000
H       -0.29580000       1.92290000      -0.41390000
H        0.67990000      -0.04340000      -1.02010000
H        0.76640000      -0.42720000       0.69710000
H       -1.95040000       0.09300000       0.36600000
H       -2.84390000      -1.03620000      -1.68540000
H       -1.02470000      -2.79370000      -2.90100000
H       -0.59980000      -4.08380000      -0.32960000
H       -2.39500000      -2.28110000       0.85710000
