20
Properties=species:S:1:pos:R:3 gdb_23353=T pbc="F F F"
C        0.25180000       1.45940000       0.04230000
C        0.01700000      -0.02480000       0.15310000
N       -0.18500000      -0.63090000       1.26000000
O       -0.16010000       0.26310000       2.34750000
C       -0.00540000      -0.84350000      -1.10690000
C        1.30100000      -0.92500000      -1.99050000
C        1.19060000      -2.45370000      -1.95590000
C        1.25080000      -2.93720000      -0.53620000
C       -0.04270000      -2.37350000      -1.04920000
H        1.13020000       1.75360000       0.62560000
H        0.39780000       1.76230000      -0.99660000
H       -0.59620000       2.01200000       0.45990000
H       -0.32140000      -0.32530000       3.09220000
H       -0.81780000      -0.46320000      -1.73830000
H        1.15930000      -0.48890000      -2.98130000
H        2.21280000      -0.50800000      -1.55010000
H        1.37270000      -3.10870000      -2.79900000
H        1.25660000      -4.01550000      -0.41250000
H        1.82880000      -2.40000000       0.21010000
H       -0.94910000      -2.96540000      -1.07220000
