20
Properties=species:S:1:pos:R:3 gdb_126158=T pbc="F F F"
C       -0.06070000       1.52220000      -0.10130000
C       -0.12720000       0.00080000       0.05970000
C        0.68060000      -0.52870000       1.25830000
C        0.14990000      -0.06880000       2.61960000
N        0.76560000      -1.99090000       1.20570000
C       -0.20490000      -2.92450000       1.35140000
C        0.44730000      -4.12240000       1.18030000
N        1.76200000      -3.87110000       0.94090000
N        1.95290000      -2.58150000       0.95550000
H        0.97630000       1.86630000      -0.18040000
H       -0.58290000       1.83330000      -1.01060000
H       -0.52500000       2.04690000       0.73890000
H       -1.17260000      -0.31850000       0.15900000
H        0.26210000      -0.48080000      -0.84380000
H        1.72130000      -0.20890000       1.15050000
H       -0.89780000      -0.35610000       2.75810000
H        0.73790000      -0.50800000       3.42950000
H        0.21280000       1.01870000       2.70410000
H       -1.23130000      -2.67350000       1.55700000
H        0.05640000      -5.12640000       1.21610000
