18
Properties=species:S:1:pos:R:3 gdb_98164=T pbc="F F F"
C        0.71280000       1.59270000      -0.50930000
N        0.93480000       0.20110000      -0.86250000
C        0.05750000      -0.77740000      -0.54970000
O       -0.98770000      -0.60760000       0.05410000
C        0.43920000      -2.24420000      -0.95320000
C        0.97680000      -2.93930000       0.31800000
N       -0.73600000      -2.98100000      -1.42890000
C        1.47200000      -2.25840000      -1.99920000
N        2.30150000      -2.20580000      -2.80310000
H        0.63190000       2.21740000      -1.40500000
H       -0.22100000       1.64660000       0.05060000
H        1.52940000       1.97340000       0.11270000
H        1.74750000      -0.03740000      -1.40970000
H        0.20580000      -2.88200000       1.09020000
H        1.19110000      -3.98630000       0.09810000
H        1.88090000      -2.44830000       0.68640000
H       -1.48940000      -2.74550000      -0.78330000
H       -1.02540000      -2.61360000      -2.33240000
