24
Properties=species:S:1:pos:R:3 gdb_36962=T pbc="F F F"
C        0.16240000       1.40870000      -0.01570000
C        0.10400000      -0.11660000       0.13410000
C       -1.30900000      -0.64740000       0.25660000
C       -2.13280000      -0.91730000      -0.97800000
C       -1.63590000      -2.06590000      -0.13290000
C        1.58960000       1.94240000      -0.13340000
N        1.59610000       3.39020000      -0.31800000
C        1.62460000       4.19490000       0.89880000
C        2.83010000       4.08220000       0.03210000
H       -0.40530000       1.71920000      -0.90010000
H       -0.32730000       1.88120000       0.84630000
H        0.59080000      -0.58830000      -0.73090000
H        0.68790000      -0.42230000       1.01380000
H       -1.85800000      -0.25530000       1.11000000
H       -3.19160000      -0.68380000      -0.96050000
H       -1.66170000      -0.76010000      -1.94330000
H       -0.83370000      -2.67800000      -0.53270000
H       -2.35530000      -2.61560000       0.46420000
H        2.17710000       1.64020000       0.75510000
H        2.08350000       1.49470000      -1.00560000
H        1.01690000       5.09530000       0.88990000
H        1.65260000       3.67340000       1.85510000
H        3.65950000       3.48730000       0.41280000
H        3.11970000       4.89810000      -0.62430000
