19
Properties=species:S:1:pos:R:3 gdb_40929=T pbc="F F F"
C        0.17860000       1.51860000      -0.42240000
C        1.58370000       1.50650000       0.26050000
C        1.32560000       0.06180000       0.77790000
C       -0.04180000       0.06300000       0.03900000
O        0.45000000      -0.90520000      -0.91700000
C        1.69310000      -1.05400000      -0.21160000
C        3.00370000      -1.12470000      -1.01390000
O        3.37150000      -2.36370000      -0.37310000
C        2.08160000      -2.46900000       0.26340000
H       -0.51610000       2.22810000       0.03510000
H        0.15660000       1.64780000      -1.50640000
H        2.44340000       1.61620000      -0.40560000
H        1.68440000       2.23930000       1.06340000
H        1.46910000      -0.14050000       1.83870000
H       -1.00520000      -0.22970000       0.46340000
H        2.83710000      -1.24310000      -2.09260000
H        3.74260000      -0.33300000      -0.84090000
H        2.16330000      -2.63160000       1.34500000
H        1.45450000      -3.25130000      -0.18380000
