17
Properties=species:S:1:pos:R:3 gdb_128021=T pbc="F F F"
C       -0.24190000       1.62780000       0.06410000
N        0.01160000       0.20420000       0.04080000
C       -0.98880000      -0.56280000      -0.10910000
N       -0.91930000      -1.93210000      -0.15270000
C        0.22440000      -2.72520000      -0.04530000
C        0.25400000      -4.10810000      -0.09460000
N        1.55990000      -4.45510000       0.04910000
N        2.37770000      -3.40250000       0.18780000
C        1.57750000      -2.33980000       0.13220000
H        0.32100000       2.12300000      -0.73670000
H       -1.30690000       1.89200000      -0.05390000
H        0.11100000       2.05680000       1.01000000
H       -2.02220000      -0.20210000      -0.22010000
H       -1.79270000      -2.41450000      -0.27600000
H       -0.52710000      -4.84150000      -0.21640000
H        1.94810000      -5.38210000       0.06070000
H        1.96180000      -1.33900000       0.21670000
