16
Properties=species:S:1:pos:R:3 gdb_84468=T pbc="F F F"
O       -0.07190000       1.46750000      -0.03220000
C        0.01940000       0.04610000       0.01230000
C        0.65020000      -0.47860000       1.29460000
C       -0.15790000      -1.29580000       1.96570000
C       -1.48350000      -1.43830000       1.27560000
C       -2.28730000      -0.14010000       1.16740000
C       -1.38930000      -0.54440000       0.03910000
C       -2.16400000      -2.69980000       1.26340000
N       -2.71140000      -3.71930000       1.26660000
H        0.82040000       1.82230000      -0.10100000
H        0.56510000      -0.31950000      -0.87140000
H        1.63550000      -0.16310000       1.61980000
H        0.05340000      -1.78760000       2.90730000
H       -3.35480000      -0.23810000       1.00630000
H       -1.98120000       0.67380000       1.81290000
H       -1.84360000      -0.86130000      -0.89030000
