17
Properties=species:S:1:pos:R:3 gdb_88923=T pbc="F F F"
C        0.43000000       1.94600000       0.51160000
N        0.03790000       0.55630000       0.32760000
C        1.02100000      -0.35940000      -0.22850000
C        0.56040000      -0.50570000       1.18410000
C        1.55090000      -0.29950000       2.32930000
C        0.85650000      -0.19270000       3.67070000
O        0.89140000      -1.03640000       4.52960000
C        0.07930000       1.04790000       3.89950000
N       -0.51230000       2.02430000       4.08440000
H        1.49560000       2.09490000       0.75190000
H        0.22760000       2.48150000      -0.42080000
H       -0.17250000       2.39580000       1.30460000
H        0.67300000      -1.04160000      -0.99980000
H        2.03640000       0.01150000      -0.37370000
H       -0.17730000      -1.27800000       1.39780000
H        2.21940000      -1.16280000       2.39760000
H        2.15610000       0.59760000       2.16360000
