25
Properties=species:S:1:pos:R:3 gdb_100263=T pbc="F F F"
C       -0.20260000       1.55740000       0.11330000
C        0.00490000       0.04040000       0.04960000
C        0.72860000      -0.49640000      -1.22270000
C        0.80670000      -2.03390000      -1.12570000
C        0.01050000      -0.06890000      -2.52610000
C       -1.46770000      -0.45610000      -2.64420000
C        2.15180000       0.10830000      -1.23410000
C        3.19780000      -0.46820000      -0.28830000
O        2.44270000       1.03040000      -1.96330000
H        0.74150000       2.10220000       0.01990000
H       -0.86250000       1.91040000      -0.68440000
H       -0.65950000       1.83770000       1.06740000
H        0.56490000      -0.28500000       0.93470000
H       -0.96550000      -0.46510000       0.11860000
H       -0.19720000      -2.46750000      -1.13210000
H        1.35760000      -2.46110000      -1.97070000
H        1.29230000      -2.36350000      -0.20300000
H        0.11810000       1.01170000      -2.64260000
H        0.56260000      -0.50190000      -3.36920000
H       -1.62520000      -1.53780000      -2.58280000
H       -2.08240000       0.01310000      -1.86930000
H       -1.86140000      -0.12740000      -3.61110000
H        2.80380000      -0.64620000       0.71610000
H        3.54970000      -1.43330000      -0.66960000
H        4.04400000       0.21820000      -0.24110000
