14
Properties=species:S:1:pos:R:3 gdb_133232=T pbc="F F F"
C       -0.03210000       1.45130000      -0.01280000
N       -0.00330000      -0.00360000       0.00870000
N       -0.02570000      -0.62680000      -1.17050000
C       -0.00010000      -1.91170000      -1.14730000
F       -0.02160000      -2.55730000      -2.30700000
C        0.05030000      -2.65750000       0.07170000
N        0.07240000      -2.06480000       1.21760000
C        0.04590000      -0.66530000       1.25350000
N        0.06420000       0.04520000       2.31460000
H        0.85740000       1.84600000       0.48550000
H       -0.06860000       1.76450000      -1.05470000
H       -0.90540000       1.81190000       0.53720000
H        0.07050000      -3.74580000       0.03620000
H        0.10050000      -0.57490000       3.12110000
