13
Properties=species:S:1:pos:R:3 gdb_24868=T pbc="F F F"
N       -0.09460000       1.31610000      -0.26530000
C        0.00950000       0.08370000       0.01950000
N       -1.09620000      -0.63540000       0.42080000
C       -1.13060000      -1.96810000       0.75830000
N       -2.19430000      -2.53970000       1.11480000
O        0.07990000      -2.63090000       0.67810000
C        1.25650000      -2.04070000       0.29470000
O        2.26830000      -2.67440000       0.24760000
N        1.16240000      -0.70260000      -0.01790000
H        0.79250000       1.72580000      -0.54590000
H       -1.96950000      -0.13330000       0.47170000
H       -2.02880000      -3.52080000       1.32450000
H        2.02970000      -0.27240000      -0.29910000
