20
Properties=species:S:1:pos:R:3 gdb_40545=T pbc="F F F"
C        0.94640000       1.38080000       0.25860000
C        0.89000000       0.25400000      -0.73980000
C       -0.23310000       0.42260000       0.24940000
C       -0.44040000      -0.50970000       1.37920000
C        0.06480000      -1.73540000       1.56740000
C       -0.36980000      -2.36070000       2.87770000
C       -1.21050000      -1.26220000       3.52020000
N       -0.44880000      -0.02760000       3.81640000
C       -1.26650000      -0.12120000       2.57030000
H        1.64510000       1.29000000       1.08230000
H        0.78620000       2.39510000      -0.09070000
H        0.69150000       0.49360000      -1.77860000
H        1.57320000      -0.57590000      -0.60050000
H       -1.15290000       0.84730000      -0.14890000
H        0.73810000      -2.24130000       0.88480000
H       -0.95840000      -3.27420000       2.71680000
H        0.48370000      -2.63790000       3.50860000
H       -2.04630000      -1.52220000       4.16090000
H       -0.97590000       0.50620000       4.50670000
H       -2.12930000       0.52900000       2.46450000
