17
Properties=species:S:1:pos:R:3 gdb_46770=T pbc="F F F"
O        0.26740000       0.16980000       0.55540000
C        0.11440000       1.30150000       0.15130000
N       -1.01800000       2.07000000       0.27220000
C       -0.89830000       3.38860000      -0.30700000
C        0.62690000       3.47430000      -0.58500000
C        1.51700000       4.18070000       0.41770000
C        2.52610000       3.39030000       0.77690000
C        2.42990000       2.04220000       0.09360000
N        1.08880000       2.07490000      -0.51120000
H       -1.89320000       1.63640000       0.50950000
H       -1.46720000       3.48770000      -1.24050000
H       -1.23430000       4.17410000       0.37960000
H        0.79060000       3.89460000      -1.58640000
H        1.36240000       5.20960000       0.71960000
H        3.34460000       3.65700000       1.43420000
H        3.20900000       1.92720000      -0.67260000
H        2.49870000       1.18200000       0.76600000
