22
Properties=species:S:1:pos:R:3 gdb_60428=T pbc="F F F"
C        0.63930000       0.99290000       0.67160000
C        0.32440000      -0.33210000      -0.03370000
C       -1.16400000      -0.68670000       0.07030000
C        0.75500000      -0.29780000      -1.49910000
O        2.15880000      -0.11890000      -1.57280000
C        2.64980000      -0.00860000      -2.88930000
C        4.17550000       0.09360000      -2.91060000
N        4.76630000      -0.05230000      -1.69940000
O        4.76940000       0.27830000      -3.95470000
H        1.69600000       1.25170000       0.57000000
H        0.05030000       1.81180000       0.24080000
H        0.39870000       0.93600000       1.73790000
H        0.90640000      -1.12930000       0.44860000
H       -1.78510000       0.07080000      -0.42240000
H       -1.38340000      -1.65390000      -0.39400000
H       -1.47790000      -0.73890000       1.11710000
H        0.47230000      -1.23500000      -2.00640000
H        0.24330000       0.52620000      -2.02570000
H        2.36830000      -0.88330000      -3.49650000
H        2.24890000       0.88100000      -3.39760000
H        4.20200000      -0.18710000      -0.87830000
H        5.76790000       0.01120000      -1.63400000
