22
Properties=species:S:1:pos:R:3 gdb_100550=T pbc="F F F"
C       -0.26150000       1.38530000       0.44520000
C       -0.37110000      -0.12660000       0.22900000
C       -1.63430000      -0.56600000      -0.55530000
C       -1.65300000      -0.05630000      -2.00000000
C       -1.69100000      -2.09090000      -0.53160000
O       -1.18130000      -2.79350000      -1.37670000
N       -2.27330000      -2.62560000       0.62560000
C       -3.70230000      -2.61040000       0.89840000
C       -2.97270000      -3.88780000       0.60690000
H        0.61430000       1.62320000       1.05700000
H       -0.15900000       1.92990000      -0.49790000
H       -1.14450000       1.77670000       0.96320000
H        0.51330000      -0.49500000      -0.30530000
H       -0.37910000      -0.63030000       1.20190000
H       -2.50820000      -0.18250000      -0.01320000
H       -2.56520000      -0.36990000      -2.51690000
H       -1.60820000       1.03510000      -2.03400000
H       -0.80460000      -0.46320000      -2.55590000
H       -3.99310000      -2.36220000       1.91560000
H       -4.36260000      -2.22450000       0.12510000
H       -3.11820000      -4.35030000      -0.36550000
H       -2.74110000      -4.57190000       1.41800000
