17
Properties=species:S:1:pos:R:3 gdb_97238=T pbc="F F F"
C        0.08310000       1.40590000       0.35950000
N       -0.03120000      -0.01930000       0.12040000
C       -1.13050000      -0.61690000      -0.10230000
N       -1.12870000      -1.99720000      -0.24360000
C       -2.24120000      -2.66210000      -0.88720000
C       -3.50460000      -2.15150000      -0.22570000
O       -3.59880000      -0.72350000      -0.33450000
C       -2.49580000       0.05610000      -0.21730000
O       -2.62440000       1.24990000      -0.23750000
H        1.10660000       1.61350000       0.68480000
H       -0.11380000       1.98460000      -0.55050000
H       -0.61390000       1.77490000       1.11950000
H       -0.20030000      -2.37510000      -0.37160000
H       -2.28870000      -2.48210000      -1.97380000
H       -2.15710000      -3.74150000      -0.73020000
H       -4.40300000      -2.54140000      -0.70850000
H       -3.51660000      -2.43030000       0.83420000
