20
Properties=species:S:1:pos:R:3 gdb_78293=T pbc="F F F"
C       -0.03730000       1.48880000      -0.00050000
C       -0.02550000      -0.01980000      -0.07770000
C        0.74760000      -0.68890000      -1.14710000
N        1.28460000      -0.62220000       0.26070000
C        1.22960000      -2.14810000       0.30460000
C        2.33520000      -2.82220000       1.05300000
C       -0.11570000      -2.78500000       0.00130000
C        0.73610000      -2.23180000      -1.11320000
O        1.23180000      -2.99290000      -2.15440000
H        0.89950000       1.90390000      -0.38160000
H       -0.86580000       1.89870000      -0.58780000
H       -0.15560000       1.81910000       1.03650000
H       -0.92800000      -0.48800000       0.30090000
H        1.24770000      -0.14800000      -1.94610000
H        2.20070000      -2.70620000       2.13480000
H        2.36400000      -3.89130000       0.82410000
H        3.30090000      -2.38280000       0.78580000
H       -0.05720000      -3.86880000       0.05510000
H       -1.08180000      -2.38970000       0.29720000
H        0.49730000      -3.23850000      -2.72850000
