21
Properties=species:S:1:pos:R:3 gdb_75242=T pbc="F F F"
C        0.03280000       1.51100000       0.08560000
C       -0.01670000       0.01410000      -0.03470000
C       -0.06620000      -0.63680000      -1.19710000
C       -0.07240000      -2.14150000      -1.28110000
C        0.31860000      -2.73760000       0.05550000
C        0.56010000      -4.19990000       0.22460000
C        1.72530000      -3.22810000       0.30570000
O       -0.34230000      -2.12260000       1.13030000
C        0.00390000      -0.75430000       1.26530000
H        0.92340000       1.83730000       0.63870000
H        0.05290000       1.98990000      -0.89690000
H       -0.83440000       1.89760000       0.63660000
H       -0.10370000      -0.07990000      -2.13070000
H       -1.06940000      -2.50130000      -1.57600000
H        0.61810000      -2.48330000      -2.06180000
H        0.21930000      -4.64550000       1.15210000
H        0.47460000      -4.83860000      -0.64830000
H        2.44210000      -3.20360000      -0.50820000
H        2.14490000      -3.04570000       1.28890000
H        0.99800000      -0.65220000       1.73820000
H       -0.72420000      -0.33040000       1.96780000
