19
Properties=species:S:1:pos:R:3 gdb_65061=T pbc="F F F"
O        0.06960000       1.35440000      -0.09600000
C        0.07940000      -0.05000000      -0.04810000
C        1.15890000      -0.68920000      -0.86850000
C        1.24300000      -0.70640000       0.64730000
C       -1.31000000      -0.66860000      -0.00070000
C       -2.42250000       0.08950000       0.71610000
C       -2.41660000       0.02710000      -0.78270000
C       -1.35950000      -2.10460000       0.06730000
C       -1.39810000      -3.30640000       0.12310000
H        0.01180000       1.68100000       0.80820000
H        0.93390000      -1.62060000      -1.37450000
H        1.81840000      -0.01360000      -1.40010000
H        1.96760000      -0.04740000       1.11350000
H        1.07540000      -1.64790000       1.15700000
H       -3.14850000      -0.50110000       1.26130000
H       -2.16290000       1.03430000       1.17940000
H       -2.12390000       0.92310000      -1.31620000
H       -3.14530000      -0.60150000      -1.27960000
H       -1.43720000      -4.36630000       0.17070000
