14
Properties=species:S:1:pos:R:3 gdb_19247=T pbc="F F F"
O       -0.01460000       1.39150000       0.19690000
C        0.01640000       0.01680000       0.03690000
C       -1.32890000      -0.72340000       0.05060000
N       -2.07580000      -0.11440000      -1.07500000
C       -1.13340000      -1.22230000      -1.33610000
C        0.25800000      -0.58340000      -1.43830000
C        0.48940000       0.36040000      -2.51700000
N        0.67240000       1.12080000      -3.36810000
H       -0.75200000       1.71330000      -0.34160000
H        0.75160000      -0.38680000       0.73460000
H       -1.84350000      -1.16790000       0.89270000
H       -3.02100000      -0.49230000      -1.07580000
H       -1.45890000      -2.14450000      -1.79840000
H        1.05650000      -1.32890000      -1.41590000
