25
Properties=species:S:1:pos:R:3 gdb_113194=T pbc="F F F"
C       -0.15410000       1.59740000      -0.46080000
C       -0.03320000       0.19400000       0.14660000
C       -1.35420000      -0.54930000       0.14000000
C       -1.80050000      -1.36130000      -1.05600000
C       -1.49470000      -2.05200000       0.25630000
C       -0.26010000      -2.92940000       0.35820000
C       -2.70240000      -2.53170000       1.06280000
C       -3.23580000      -3.89950000       0.62830000
O       -2.44300000      -2.50490000       2.46660000
H        0.80570000       2.12320000      -0.44050000
H       -0.49090000       1.54750000      -1.50160000
H       -0.87890000       2.20500000       0.09210000
H        0.72500000      -0.37030000      -0.40750000
H        0.33610000       0.27400000       1.17750000
H       -2.14700000       0.00470000       0.64020000
H       -2.83340000      -1.29310000      -1.38420000
H       -1.09050000      -1.49170000      -1.86780000
H        0.57220000      -2.52870000      -0.22410000
H        0.08330000      -3.01170000       1.39660000
H       -0.45400000      -3.94110000      -0.01460000
H       -3.50260000      -1.79430000       0.92450000
H       -2.49730000      -4.69090000       0.80120000
H       -4.13380000      -4.14850000       1.20030000
H       -3.48600000      -3.90490000      -0.43710000
H       -1.87240000      -3.25220000       2.67360000
