17
Properties=species:S:1:pos:R:3 gdb_25975=T pbc="F F F"
N        0.23560000       1.15270000      -0.32120000
C       -0.04420000       0.01780000       0.37190000
O        0.60580000      -0.32170000       1.34850000
C       -1.25660000      -0.77790000      -0.11770000
C       -0.99790000      -2.25170000      -0.20340000
C       -1.40920000      -3.18730000      -1.12930000
C       -0.92080000      -4.45360000      -0.70110000
C       -0.22640000      -4.24870000       0.46940000
N       -0.29080000      -2.91360000       0.76770000
H        1.03130000       1.70140000      -0.03690000
H       -0.24330000       1.39720000      -1.16930000
H       -2.05800000      -0.56010000       0.60500000
H       -1.60920000      -0.41820000      -1.08840000
H       -2.00120000      -2.98430000      -2.00940000
H       -1.06430000      -5.40230000      -1.19520000
H        0.30810000      -4.93450000       1.10700000
H        0.19950000      -2.41510000       1.49580000
