18
Properties=species:S:1:pos:R:3 gdb_40846=T pbc="F F F"
C       -0.14200000       1.34780000      -0.10270000
C        1.29540000       0.99790000       0.16540000
C        0.26540000      -0.10230000       0.03850000
N       -0.11950000      -0.75890000       1.24320000
C       -0.41220000      -1.98030000       1.23790000
C       -0.86190000      -2.80410000       2.42610000
O       -0.73890000      -4.14470000       1.97020000
C       -0.89310000      -4.08630000       0.57840000
O       -0.38370000      -2.82500000       0.15390000
H       -0.71730000       1.76720000       0.71400000
H       -0.42080000       1.69970000      -1.08960000
H        2.01910000       1.10560000      -0.63470000
H        1.68040000       1.18420000       1.16080000
H        0.28990000      -0.69810000      -0.87030000
H       -0.22440000      -2.65940000       3.29960000
H       -1.90090000      -2.56120000       2.69740000
H       -0.31020000      -4.88650000       0.11500000
H       -1.95250000      -4.15770000       0.28060000
