21
Properties=species:S:1:pos:R:3 gdb_82374=T pbc="F F F"
C       -0.85880000       1.27830000       0.00430000
C       -0.00050000       0.00600000       0.00280000
C        0.83260000      -0.14020000      -1.26720000
C        1.91720000       0.84250000      -1.68050000
C        2.27850000      -0.54000000      -1.19620000
O        2.94640000      -0.72950000       0.01830000
C        2.26230000      -0.55380000       1.22590000
C        1.89450000       0.82300000       1.72100000
C        0.81550000      -0.15480000       1.28210000
H       -0.23180000       2.17490000       0.01370000
H       -1.49460000       1.32200000      -0.88630000
H       -1.50640000       1.31190000       0.88690000
H       -0.68830000      -0.85010000      -0.00670000
H        0.27300000      -0.57020000      -2.09320000
H        2.02850000       1.06670000      -2.73620000
H        2.14130000       1.67670000      -1.02670000
H        2.65520000      -1.25000000      -1.92600000
H        2.62920000      -1.27220000       1.95240000
H        1.99150000       1.03500000       2.78060000
H        2.12720000       1.66460000       1.07990000
H        0.24490000      -0.59420000       2.09550000
