18
Properties=species:S:1:pos:R:3 gdb_91251=T pbc="F F F"
C       -0.00260000       1.52460000       0.21910000
C        0.00510000       0.02070000       0.00050000
C        0.75560000      -0.58680000      -1.25030000
C        1.23600000      -1.78650000      -0.33990000
N        2.59630000      -2.18370000      -0.12390000
C        3.05890000      -1.72660000       1.12250000
O        4.11170000      -2.03620000       1.63200000
C        2.02620000      -0.74690000       1.59900000
C        0.96660000      -0.84010000       0.79120000
H        1.01410000       1.92810000       0.18290000
H       -0.59840000       2.02730000      -0.54960000
H       -0.43290000       1.77870000       1.19330000
H       -1.01480000      -0.37950000       0.03650000
H        0.14780000      -0.84380000      -2.12050000
H        1.59860000       0.04200000      -1.54310000
H        0.54880000      -2.63490000      -0.42980000
H        2.99060000      -3.03380000      -0.49590000
H        2.23960000      -0.03150000       2.38030000
