19
Properties=species:S:1:pos:R:3 gdb_87820=T pbc="F F F"
C       -0.26540000       1.52880000       0.02940000
C        0.05620000       0.07180000      -0.03410000
O       -0.81280000      -0.83930000       0.67210000
C        0.59040000      -0.88420000       0.95670000
C        1.24910000      -1.74620000      -0.13400000
C        0.67420000      -0.74410000      -1.16610000
C        0.09410000      -1.00220000      -2.53230000
C        1.37250000      -0.23130000      -2.39650000
O        1.30730000       1.12500000      -2.73960000
H        0.60490000       2.13790000      -0.22940000
H       -1.06450000       1.78340000      -0.67460000
H       -0.59780000       1.79030000       1.03750000
H        0.89440000      -0.74070000       1.98780000
H        2.34290000      -1.73880000      -0.09550000
H        0.88710000      -2.77640000      -0.18680000
H        0.13180000      -2.00810000      -2.93670000
H       -0.78360000      -0.42910000      -2.81360000
H        2.29800000      -0.73270000      -2.68470000
H        1.99840000       1.58900000      -2.25530000
