19
Properties=species:S:1:pos:R:3 gdb_116609=T pbc="F F F"
C        0.10660000       1.49700000       0.14800000
C        0.10050000      -0.01870000      -0.05290000
N        0.93370000      -0.38250000      -1.19630000
C        1.77130000      -1.30400000      -1.09230000
O        2.11000000      -2.13380000      -0.02890000
C        3.18970000      -2.76180000      -0.79790000
C        2.79970000      -1.90040000      -1.99550000
C        2.69510000      -2.15080000      -3.44930000
N        3.68090000      -1.19850000      -2.91270000
H        1.11200000       1.85310000       0.39320000
H       -0.21850000       2.00600000      -0.76400000
H       -0.56520000       1.77990000       0.96450000
H        0.41540000      -0.52700000       0.86790000
H       -0.92380000      -0.34950000      -0.26900000
H        4.16670000      -2.54270000      -0.36060000
H        3.03170000      -3.83930000      -0.88580000
H        3.12020000      -3.05770000      -3.87040000
H        1.81060000      -1.76940000      -3.95210000
H        3.34690000      -0.24260000      -3.02380000
