18
Properties=species:S:1:pos:R:3 gdb_40421=T pbc="F F F"
C        0.34040000       1.57530000      -0.07310000
N        1.22340000       0.42700000      -0.32280000
C       -0.18380000       0.18930000       0.04570000
C       -0.42730000      -0.45700000       1.36340000
O       -0.95380000      -1.81320000       1.30850000
C       -1.75630000      -0.79460000       1.91090000
C       -1.67280000      -0.74390000       3.43280000
C       -0.21070000      -0.42560000       3.67990000
C        0.46750000      -0.24290000       2.54470000
H        0.57540000       2.14110000       0.82430000
H       -0.00060000       2.17600000      -0.91210000
H        1.35410000       0.28640000      -1.32050000
H       -0.86190000      -0.15330000      -0.73240000
H       -2.68850000      -0.57060000       1.39750000
H       -2.33760000       0.02770000       3.84220000
H       -1.97240000      -1.69660000       3.88620000
H        0.21600000      -0.39960000       4.67640000
H        1.52000000      -0.01590000       2.44190000
