15
Properties=species:S:1:pos:R:3 gdb_22790=T pbc="F F F"
O        0.03700000       1.33040000       0.09480000
N        0.02210000      -0.04550000       0.00800000
C       -1.13680000      -0.58880000       0.02360000
C       -1.16530000      -2.09930000      -0.07570000
N       -2.14760000      -2.62210000      -1.02420000
C       -3.18370000      -1.91020000      -1.19210000
N       -3.43930000      -0.68250000      -0.59310000
C       -2.46660000       0.08470000       0.06380000
N       -2.67320000       1.21160000       0.62060000
H        0.97860000       1.52580000       0.01830000
H       -0.16730000      -2.45240000      -0.34320000
H       -1.39900000      -2.52880000       0.91200000
H       -3.98390000      -2.25530000      -1.84610000
H       -4.34020000      -0.25310000      -0.74330000
H       -3.65400000       1.49230000       0.53660000
