20
Properties=species:S:1:pos:R:3 gdb_117275=T pbc="F F F"
C        0.10560000       1.59650000      -0.23870000
C       -0.00010000       0.10040000      -0.00970000
O        0.62640000      -0.55300000      -1.12520000
C        0.63650000      -1.89950000      -1.10670000
N        0.12510000      -2.57020000      -0.16350000
C        1.34020000      -2.40150000      -2.36500000
C        1.41600000      -3.85100000      -2.46310000
C        1.47140000      -5.05180000      -2.53100000
C        1.54720000      -6.50270000      -2.62880000
H        1.15170000       1.90900000      -0.30600000
H       -0.39950000       1.88730000      -1.16430000
H       -0.36160000       2.13350000       0.59220000
H        0.50000000      -0.21160000       0.91310000
H       -1.04070000      -0.23320000       0.06030000
H        0.24210000      -3.56590000      -0.34760000
H        0.81580000      -1.97840000      -3.23140000
H        2.34280000      -1.95570000      -2.38670000
H        2.04220000      -6.80940000      -3.55670000
H        2.11390000      -6.92960000      -1.79420000
H        0.54980000      -6.95550000      -2.62020000
