17
Properties=species:S:1:pos:R:3 gdb_28576=T pbc="F F F"
C       -0.19080000       1.42520000       0.24790000
C       -0.02890000      -0.01110000      -0.08180000
C        0.14630000      -0.72660000      -1.21600000
N        0.23060000      -2.08570000      -0.91720000
C        0.11140000      -2.12390000       0.37290000
O       -0.04990000      -0.91470000       0.96340000
N        0.20070000      -3.20970000       1.22410000
C       -1.03910000      -3.82790000       1.72280000
C       -0.20000000      -4.50770000       0.69750000
H        0.60320000       1.77960000       0.91520000
H       -0.15450000       2.01680000      -0.66990000
H       -1.14830000       1.62220000       0.74370000
H        0.21630000      -0.36610000      -2.23040000
H       -1.00580000      -4.13980000       2.76140000
H       -1.97970000      -3.39410000       1.39490000
H       -0.56480000      -4.52900000      -0.32460000
H        0.44500000      -5.33230000       0.98390000
