18
Properties=species:S:1:pos:R:3 gdb_54970=T pbc="F F F"
C       -0.10470000       1.39540000      -0.14250000
C        0.00320000      -0.11490000      -0.06170000
O        0.96680000      -0.74490000      -0.43120000
N       -1.08500000      -0.73240000       0.56140000
C       -2.47950000      -0.64460000       0.23130000
C       -1.72400000      -1.96440000       0.13250000
C       -1.43390000      -2.57680000      -1.21760000
C       -1.95820000      -2.92070000       1.26710000
O       -2.11540000      -4.10550000       1.13010000
H        0.87690000       1.80980000      -0.37100000
H       -0.80200000       1.68020000      -0.93850000
H       -0.48520000       1.81390000       0.79300000
H       -3.16370000      -0.45690000       1.05620000
H       -2.76800000      -0.19890000      -0.71850000
H       -1.45820000      -1.82380000      -2.00860000
H       -0.44420000      -3.03830000      -1.22040000
H       -2.17650000      -3.34860000      -1.43230000
H       -1.98160000      -2.42780000       2.26450000
