16
Properties=species:S:1:pos:R:3 gdb_17989=T pbc="F F F"
N        0.11480000      -1.14640000       0.33730000
C        0.04480000      -0.00480000       0.16310000
C       -0.01190000       1.43290000      -0.02110000
C       -0.35990000       2.31550000       1.22570000
N        0.88520000       3.12020000       1.06410000
C        2.01740000       2.61720000       1.91080000
C        2.52060000       1.68570000       0.77260000
C        1.33820000       2.21670000      -0.06360000
H       -0.64510000       1.65920000      -0.88180000
H       -1.26880000       2.91000000       1.10450000
H       -0.42060000       1.76540000       2.17000000
H        2.70450000       3.42410000       2.17930000
H        1.69240000       2.12010000       2.83090000
H        3.50080000       1.94320000       0.36790000
H        2.50050000       0.61390000       0.98180000
H        1.57090000       2.67760000      -1.02650000
