13
Properties=species:S:1:pos:R:3 gdb_21858=T pbc="F F F"
O       -0.01080000       1.36070000       0.00810000
C       -0.01960000       0.00630000       0.00090000
C       -1.19050000      -0.67450000       0.00390000
C       -1.19690000      -2.12170000      -0.00380000
N       -2.27770000      -2.81420000      -0.00140000
N        0.10310000      -2.67110000      -0.01400000
N        1.27020000      -2.02100000      -0.01710000
C        1.22260000      -0.72610000      -0.00990000
H        0.89750000       1.68070000       0.00470000
H       -2.14620000      -0.16800000       0.01200000
H       -2.08520000      -3.81690000      -0.00780000
H        0.19620000      -3.67620000      -0.01990000
H        2.17930000      -0.21080000      -0.01260000
