15
Properties=species:S:1:pos:R:3 gdb_85806=T pbc="F F F"
O        0.90710000       0.22310000       1.01350000
C        0.09820000      -0.45120000       0.10520000
C       -1.42650000      -0.10710000      -0.06890000
C       -1.31250000      -0.34240000      -1.60250000
O       -1.59280000      -1.71730000      -1.84760000
C       -1.98960000       0.55690000      -2.51310000
C       -2.51440000       1.30180000      -3.29770000
C        0.23550000      -0.13500000      -1.39280000
O        1.10390000       0.35870000      -2.04780000
H        1.14980000       1.07510000       0.63260000
H        0.20470000      -1.52500000       0.28710000
H       -2.13580000      -0.76250000       0.43550000
H       -1.63410000       0.93990000       0.15940000
H       -1.40800000      -1.89140000      -2.77810000
H       -2.98590000       1.96140000      -3.98420000
