13
Properties=species:S:1:pos:R:3 gdb_1510=T pbc="F F F"
O       -0.14870000       1.46450000       0.01170000
C        0.03780000       0.05910000       0.00230000
C       -1.34380000      -0.57490000       0.01140000
C       -1.31160000      -2.08410000       0.00280000
O       -0.30390000      -2.74600000      -0.01040000
C       -2.69800000      -2.77890000       0.01220000
O       -2.82020000      -3.97120000       0.00740000
H        0.71760000       1.88190000       0.00660000
H        0.58840000      -0.27680000      -0.88820000
H        0.60440000      -0.28640000       0.87900000
H       -1.91270000      -0.23680000       0.88980000
H       -1.92840000      -0.22730000      -0.85290000
H       -3.57460000      -2.09200000       0.02390000
