16
Properties=species:S:1:pos:R:3 gdb_117872=T pbc="F F F"
C        0.98490000       1.19330000      -0.29180000
O        0.96240000      -0.21140000      -0.42500000
C       -0.19680000      -0.68900000      -1.05080000
C       -0.07730000      -2.21810000      -1.17520000
O       -1.28890000      -2.78870000      -1.64090000
C        1.06410000      -2.60130000      -2.00940000
C        1.96940000      -2.91860000      -2.74400000
C        2.99610000      -3.27550000      -3.57020000
N        3.86740000      -3.57780000      -4.27650000
H        0.94470000       1.69330000      -1.27140000
H        0.14370000       1.55620000       0.31810000
H        1.92220000       1.45570000       0.20290000
H       -1.10270000      -0.47120000      -0.46380000
H       -0.32750000      -0.24480000      -2.05290000
H        0.07620000      -2.62180000      -0.16790000
H       -1.38620000      -2.57040000      -2.57500000
