19
Properties=species:S:1:pos:R:3 gdb_68219=T pbc="F F F"
C        0.01910000       1.49650000       0.13040000
C        0.00700000       0.00410000      -0.03390000
C        0.92560000      -0.77580000      -1.01500000
C        0.70240000      -1.83030000       0.08880000
O        0.64230000      -0.74450000       1.06410000
C       -0.77650000      -2.16780000      -0.07300000
C       -1.32500000      -3.39350000      -0.65150000
O       -1.37210000      -3.14630000       0.76210000
C       -1.34890000      -0.74190000      -0.15650000
H        1.04150000       1.86560000       0.24810000
H       -0.42840000       1.98030000      -0.74390000
H       -0.55770000       1.78870000       1.01400000
H        0.57590000      -0.97900000      -2.03110000
H        1.94530000      -0.38840000      -1.00890000
H        1.39810000      -2.63080000       0.33600000
H       -2.28620000      -3.36670000      -1.16350000
H       -0.66060000      -4.20020000      -0.96150000
H       -2.00160000      -0.52830000       0.69310000
H       -1.88200000      -0.53100000      -1.08760000
