19
Properties=species:S:1:pos:R:3 gdb_128484=T pbc="F F F"
C       -0.00020000       1.42080000       0.03040000
O       -0.01330000       0.00690000       0.02100000
C        0.60040000      -0.57300000      -1.04510000
C        0.68520000      -1.94500000      -1.22150000
C        0.17470000      -3.05670000      -0.37030000
N        1.36560000      -2.11470000      -2.39250000
C        1.71780000      -3.36520000      -3.02590000
N        1.71830000      -0.95380000      -2.97200000
C        1.25520000      -0.00350000      -2.15620000
H        1.02570000       1.81310000       0.05210000
H       -0.51710000       1.83340000      -0.84680000
H       -0.52360000       1.73310000       0.93580000
H       -0.54430000      -3.69220000      -0.90170000
H        0.97980000      -3.70680000      -0.00660000
H       -0.33190000      -2.63300000       0.49950000
H        0.82450000      -3.94750000      -3.27640000
H        2.25710000      -3.12050000      -3.94030000
H        2.35970000      -3.97050000      -2.37700000
H        1.41090000       1.03570000      -2.40010000
