19
Properties=species:S:1:pos:R:3 gdb_106804=T pbc="F F F"
C       -0.21980000       1.45400000       0.08170000
C        0.16840000       0.00260000       0.05450000
C        0.38260000      -0.70690000      -1.27340000
O        0.98240000      -1.95570000      -0.96590000
C        1.66350000      -1.85980000       0.27860000
C        0.98880000      -0.72980000       1.03350000
C        1.56910000      -0.20410000       2.31660000
O        1.50130000      -1.18090000       3.34420000
O       -0.44940000      -0.87430000       1.01380000
H        0.51500000       2.06390000      -0.45370000
H       -1.19160000       1.59620000      -0.40360000
H       -0.30120000       1.82110000       1.10670000
H       -0.55300000      -0.90370000      -1.80810000
H        1.03040000      -0.08900000      -1.91800000
H        1.58300000      -2.82500000       0.78660000
H        2.73230000      -1.62390000       0.14240000
H        2.63180000       0.02700000       2.18550000
H        1.05500000       0.72230000       2.60810000
H        0.57140000      -1.41620000       3.44210000
