18
Properties=species:S:1:pos:R:3 gdb_69750=T pbc="F F F"
C        0.11020000       1.54110000       0.08930000
C       -0.06260000       0.05670000      -0.03530000
C       -0.98390000      -0.74290000       0.79260000
N        0.47230000      -0.92820000       0.99610000
C        1.02700000      -1.76430000      -0.14520000
C        0.17430000      -2.90000000      -0.77410000
C       -0.36360000      -1.86810000      -1.79900000
O       -1.14310000      -1.92730000      -2.70330000
C        0.53400000      -0.75620000      -1.21580000
H        1.14160000       1.83990000      -0.12660000
H       -0.54880000       2.06690000      -0.61130000
H       -0.13500000       1.87110000       1.10300000
H       -1.44370000      -0.23790000       1.63720000
H       -1.59810000      -1.53510000       0.37610000
H        2.08070000      -1.97480000       0.02480000
H        0.80360000      -3.64280000      -1.27760000
H       -0.55450000      -3.43180000      -0.15750000
H        1.18440000      -0.20240000      -1.89190000
