18
Properties=species:S:1:pos:R:3 gdb_17829=T pbc="F F F"
O       -0.00570000       1.46310000       0.18570000
C        0.00350000       0.06970000       0.06130000
C       -0.52300000      -0.78040000       1.18960000
C       -1.33290000      -0.60250000      -0.08490000
C       -2.60220000       0.20230000      -0.07170000
C       -3.24310000       0.57000000      -1.43160000
O       -4.49670000      -0.03750000      -1.05700000
C       -3.93530000      -0.54670000       0.16900000
H        0.67760000       1.71000000       0.81730000
H        0.82970000      -0.32750000      -0.52830000
H       -0.05800000      -1.73920000       1.39090000
H       -0.87580000      -0.25090000       2.06910000
H       -1.35260000      -1.45800000      -0.75650000
H       -2.48410000       1.07340000       0.57360000
H       -3.35040000       1.63810000      -1.65200000
H       -2.78910000       0.07190000      -2.30000000
H       -3.85110000      -1.64280000       0.15900000
H       -4.52020000      -0.24540000       1.04640000
