21
Properties=species:S:1:pos:R:3 gdb_93028=T pbc="F F F"
C       -0.24550000       1.50220000       0.24230000
C        0.01610000       0.01080000      -0.01650000
C        0.84250000      -0.20660000      -1.31330000
C        2.35090000      -0.08510000      -1.26420000
C        3.15590000      -0.41810000      -0.25320000
C        2.65780000      -0.88910000       1.08810000
C        1.47980000      -1.89300000       1.03700000
C        0.61710000      -0.63120000       1.24330000
O        1.78290000       0.10020000       1.70580000
H        0.69690000       2.03000000       0.40740000
H       -0.76340000       1.96030000      -0.60590000
H       -0.86680000       1.64570000       1.13290000
H       -0.95340000      -0.48020000      -0.18320000
H        0.61190000      -1.20440000      -1.71560000
H        0.46290000       0.48890000      -2.07050000
H        2.80950000       0.26070000      -2.18870000
H        4.23120000      -0.32210000      -0.37830000
H        3.48770000      -1.14240000       1.75410000
H        1.34420000      -2.47600000       0.12550000
H        1.46360000      -2.55390000       1.90540000
H       -0.14460000      -0.68040000       2.03040000
