21
Properties=species:S:1:pos:R:3 gdb_111916=T pbc="F F F"
C       -0.03880000       1.52020000       0.12710000
C        0.05080000       0.02980000       0.03400000
C        0.12630000      -0.71690000      -1.07240000
C        0.13860000      -2.19810000      -0.76540000
C        1.04220000      -3.04280000      -1.65770000
O        0.50580000      -2.98510000      -2.97450000
C        0.52090000      -2.21670000       0.74160000
O        1.92640000      -2.34480000       0.93870000
C        0.00460000      -0.85730000       1.26590000
H        0.77380000       1.93170000       0.73970000
H        0.00490000       1.98990000      -0.85940000
H       -0.97480000       1.83050000       0.60960000
H        0.13560000      -0.33770000      -2.08800000
H       -0.87910000      -2.60190000      -0.88120000
H        2.07070000      -2.65730000      -1.63070000
H        1.07240000      -4.07710000      -1.28140000
H        1.10320000      -3.45810000      -3.56070000
H        0.08720000      -3.07000000       1.26920000
H        2.33900000      -1.56790000       0.54330000
H        0.62450000      -0.50190000       2.09730000
H       -1.02360000      -0.93580000       1.64790000
