20
Properties=species:S:1:pos:R:3 gdb_13719=T pbc="F F F"
C       -0.42910000       1.19570000      -0.10720000
C        0.25610000      -0.16680000       0.02460000
C        0.68160000      -0.73120000      -1.32270000
O        1.33110000      -1.98380000      -1.10690000
C        1.76190000      -2.57930000      -2.29760000
C        2.06610000      -4.05200000      -2.21350000
C        0.80560000      -3.57570000      -2.90570000
O       -0.43490000      -3.74750000      -2.29110000
H        0.23790000       1.93540000      -0.56340000
H       -1.32850000       1.13210000      -0.72940000
H       -0.72960000       1.57940000       0.87180000
H        1.14210000      -0.08860000       0.66480000
H       -0.41750000      -0.88270000       0.51060000
H       -0.18640000      -0.86530000      -1.98540000
H        1.37630000      -0.03990000      -1.82670000
H        2.37580000      -1.93720000      -2.92900000
H        2.88720000      -4.44300000      -2.80440000
H        1.93980000      -4.51410000      -1.23980000
H        0.72780000      -3.66690000      -3.98390000
H       -0.35770000      -3.33730000      -1.41910000
