18
Properties=species:S:1:pos:R:3 gdb_91895=T pbc="F F F"
O       -0.07380000       1.44200000      -0.02090000
C        0.02300000       0.02730000      -0.02940000
C       -1.39420000      -0.50920000       0.20470000
C       -1.55970000      -1.98140000      -0.14990000
N       -1.71200000      -2.28010000      -1.57230000
C       -0.48270000      -2.73610000      -0.87980000
C        0.77330000      -2.01360000      -1.25530000
O        1.82520000      -2.59700000      -1.39270000
C        0.62560000      -0.50530000      -1.34780000
H        0.81570000       1.80430000      -0.08670000
H        0.66950000      -0.31150000       0.79740000
H       -1.66800000      -0.34350000       1.25080000
H       -2.08190000       0.08230000      -0.40880000
H       -2.14800000      -2.57280000       0.54760000
H       -2.32690000      -3.07710000      -1.71390000
H       -0.35150000      -3.79630000      -0.68460000
H       -0.04540000      -0.24520000      -2.17330000
H        1.61260000      -0.07210000      -1.53220000
