18
Properties=species:S:1:pos:R:3 gdb_81093=T pbc="F F F"
C       -0.28490000       1.54880000      -0.07420000
C       -0.03650000       0.05640000       0.02450000
C        1.20120000      -0.58090000      -0.67090000
N        2.06900000       0.10690000       0.37560000
C        0.92230000      -0.51910000       1.14050000
C        0.74120000      -0.45630000       2.61550000
O        0.18920000      -1.33980000       3.23040000
C        1.06740000      -1.80560000       0.27400000
O       -0.00990000      -2.67720000       0.09550000
H        0.63750000       2.11680000       0.05560000
H       -0.70810000       1.79220000      -1.05510000
H       -1.01020000       1.87340000       0.67970000
H       -0.94490000      -0.53480000      -0.08600000
H        1.46870000      -0.56410000      -1.72820000
H        2.91940000      -0.44780000       0.52810000
H        1.12850000       0.45430000       3.12230000
H        2.01270000      -2.34090000       0.44930000
H       -0.24570000      -3.02130000       0.96490000
