16
Properties=species:S:1:pos:R:3 gdb_27796=T pbc="F F F"
C        0.00080000       1.51050000      -0.00460000
C       -0.06420000       0.01170000      -0.00200000
C       -1.22030000      -0.70040000      -0.10860000
C       -1.14970000      -2.12460000      -0.09350000
O       -2.34010000      -2.76090000      -0.20380000
C        0.04570000      -2.78050000       0.02480000
C        1.28820000      -2.06000000       0.13970000
O        2.41100000      -2.52740000       0.25000000
N        1.11970000      -0.65440000       0.11530000
H        0.61630000       1.87500000      -0.83510000
H       -0.99710000       1.93990000      -0.10310000
H        0.44710000       1.88520000       0.92370000
H       -2.17820000      -0.20950000      -0.20320000
H       -2.19130000      -3.71330000      -0.18400000
H        0.10810000      -3.86280000       0.03710000
H        1.98630000      -0.14030000       0.19530000
