19
Properties=species:S:1:pos:R:3 gdb_53294=T pbc="F F F"
C        0.21460000       1.56170000       0.12040000
C        0.10080000       0.11270000       0.05560000
C        0.00450000      -1.08740000       0.01020000
C       -0.06720000      -2.52120000      -0.06610000
O       -0.57720000      -3.23110000       1.08040000
C       -1.35180000      -3.25840000      -0.11820000
C       -2.67730000      -2.58360000      -0.10390000
C       -3.63460000      -2.82190000      -1.24870000
C       -3.92630000      -3.40710000       0.10640000
H        1.25680000       1.88300000       0.01730000
H       -0.36370000       2.04400000      -0.67550000
H       -0.15690000       1.94200000       1.07820000
H        0.80090000      -2.99970000      -0.52100000
H       -1.33580000      -4.22360000      -0.63190000
H       -2.66350000      -1.58920000       0.32820000
H       -4.22810000      -1.98330000      -1.59430000
H       -3.32340000      -3.49880000      -2.03790000
H       -3.81070000      -4.47840000       0.23370000
H       -4.72340000      -2.97330000       0.69940000
