20
Properties=species:S:1:pos:R:3 gdb_117648=T pbc="F F F"
C       -0.06370000       1.40280000      -0.00140000
O       -0.02680000      -0.00770000       0.03540000
C        0.67610000      -0.57180000      -1.05190000
C        0.62050000      -2.10440000      -0.91670000
C        1.39910000      -2.57390000       0.31880000
N       -0.80200000      -2.50520000      -0.91140000
H       -0.47030000      -3.00590000      -2.66230000
H       -0.92560000      -3.35620000      -0.37110000
H       -1.34560000      -1.78060000      -0.45130000
C        1.28320000      -2.66030000      -2.20560000
O        2.47240000      -2.64170000      -2.38860000
O        0.40540000      -3.11660000      -3.10350000
H        0.94710000       1.83410000       0.04780000
H       -0.55300000       1.77160000      -0.91560000
H       -0.63500000       1.73580000       0.86790000
H        0.21350000      -0.26230000      -2.00370000
H        1.72610000      -0.24920000      -1.06390000
H        1.04050000      -2.05160000       1.20860000
H        1.27370000      -3.65210000       0.46610000
H        2.46520000      -2.37880000       0.18690000
