18
Properties=species:S:1:pos:R:3 gdb_65366=T pbc="F F F"
N        0.07050000       1.42590000       0.04240000
C        0.02030000      -0.01950000       0.01400000
C       -0.49870000      -0.74490000       1.23890000
C       -1.32100000      -0.77450000      -0.02050000
N       -2.48410000       0.05910000      -0.05770000
C       -3.34160000      -0.05490000      -1.23650000
C       -3.77940000      -0.60900000       0.07410000
C        1.11290000      -0.62800000      -0.70450000
N        1.96620000      -1.12810000      -1.30450000
H        0.16640000       1.77400000      -0.90880000
H       -0.83650000       1.75330000       0.36840000
H        0.00380000      -1.65080000       1.55520000
H       -0.84860000      -0.10290000       2.04010000
H       -1.35330000      -1.71180000      -0.58020000
H       -3.75800000       0.87700000      -1.60670000
H       -3.04920000      -0.76420000      -2.00810000
H       -3.78200000      -1.69100000       0.18490000
H       -4.51710000      -0.08560000       0.67490000
