20
Properties=species:S:1:pos:R:3 gdb_58699=T pbc="F F F"
C       -0.07980000       1.55650000       0.18640000
C       -0.02600000       0.02750000       0.03510000
C        0.76630000      -0.59870000       1.19020000
C       -1.45490000      -0.54690000      -0.06240000
C       -1.68020000      -2.08820000       0.01110000
C       -2.53650000      -1.76080000       1.24810000
O       -2.20780000      -0.35320000       1.15930000
C       -2.16970000       0.05010000      -1.20910000
N       -2.72790000       0.49030000      -2.12060000
H        0.93200000       1.96630000       0.25090000
H       -0.58420000       2.03030000      -0.65990000
H       -0.61710000       1.82950000       1.10000000
H        0.46950000      -0.21760000      -0.91430000
H        0.24710000      -0.44280000       2.14020000
H        0.93290000      -1.67140000       1.05820000
H        1.74960000      -0.12540000       1.26170000
H       -2.20890000      -2.51860000      -0.83820000
H       -0.77620000      -2.66230000       0.20760000
H       -3.61190000      -1.93070000       1.12860000
H       -2.20400000      -2.19010000       2.19840000
