19
Properties=species:S:1:pos:R:3 gdb_86977=T pbc="F F F"
O        0.21440000       1.39800000       0.18860000
C        0.04430000      -0.01360000       0.03160000
C       -1.43740000      -0.42390000       0.06350000
C       -2.11700000      -0.19970000      -1.30230000
C       -1.41050000      -1.04450000      -2.38060000
C        0.08940000      -0.95430000      -2.28400000
C        0.73980000      -0.50140000      -1.21220000
C       -3.58320000      -0.56240000      -1.22100000
O       -4.50010000       0.20210000      -1.37130000
H        0.05820000       1.80640000      -0.66950000
H        0.53450000      -0.44090000       0.91460000
H       -1.50980000      -1.48570000       0.33480000
H       -1.93840000       0.15340000       0.84600000
H       -2.06320000       0.86210000      -1.56730000
H       -1.71920000      -2.09830000      -2.29060000
H       -1.73800000      -0.72860000      -3.37820000
H        0.64970000      -1.28800000      -3.15440000
H        1.82450000      -0.43450000      -1.21400000
H       -3.76690000      -1.64100000      -0.99330000
