18
Properties=species:S:1:pos:R:3 gdb_49312=T pbc="F F F"
O       -0.15730000      -0.00560000      -0.36250000
C        0.00890000       1.19890000      -0.32420000
C        1.22680000       1.86360000       0.11720000
C        1.21030000       3.22160000       0.07230000
N        2.16710000       4.13390000       0.38720000
C        3.32540000       3.90560000       1.24080000
C        4.03910000       2.58040000       0.98860000
O        3.29000000       1.48170000       1.44730000
C        2.37580000       0.96250000       0.49650000
H       -0.80510000       1.89390000      -0.64180000
H        0.29870000       3.68370000      -0.30410000
H        1.86390000       5.09360000       0.34730000
H        4.02570000       4.73120000       1.07240000
H        3.03300000       3.92100000       2.30140000
H        4.29400000       2.47410000      -0.07780000
H        4.97290000       2.59130000       1.56180000
H        1.96660000       0.04460000       0.92470000
H        2.92700000       0.66890000      -0.41460000
