22
Properties=species:S:1:pos:R:3 gdb_6173=T pbc="F F F"
C       -1.56640000       0.83770000      -0.68540000
C       -1.25910000      -0.52110000      -1.33280000
C       -2.03210000      -0.69340000      -2.64910000
C        0.23500000      -0.68040000      -1.55290000
C        1.17610000      -1.07740000      -0.42730000
C        0.95340000      -1.99830000      -1.60700000
C        0.25600000      -3.32780000      -1.42480000
O        1.96560000      -2.02800000      -2.58650000
H       -1.02700000       0.95810000       0.25930000
H       -1.26810000       1.66010000      -1.34640000
H       -2.63720000       0.94610000      -0.48310000
H       -1.59340000      -1.30230000      -0.63710000
H       -1.72870000       0.06620000      -3.37920000
H       -1.84670000      -1.67440000      -3.09660000
H       -3.11100000      -0.58970000      -2.49140000
H        0.65420000       0.04720000      -2.24520000
H        2.13240000      -0.57050000      -0.35990000
H        0.73680000      -1.35390000       0.52720000
H        0.96750000      -4.08580000      -1.07310000
H       -0.54950000      -3.27220000      -0.68840000
H       -0.16250000      -3.67800000      -2.37390000
H        2.66640000      -2.60670000      -2.26470000
