17
Properties=species:S:1:pos:R:3 gdb_36545=T pbc="F F F"
C        0.17480000      -1.08070000      -0.37980000
C        0.14000000       0.08670000      -0.09570000
C        0.09990000       1.50910000       0.25300000
N        1.41690000       2.14210000       0.18900000
C        1.76580000       2.65680000      -0.91140000
N        2.95450000       3.33610000      -1.12910000
C        3.20630000       3.41770000      -2.55920000
C        1.75820000       3.39960000      -3.06980000
O        1.04220000       2.65790000      -2.07200000
H        0.20390000      -2.11180000      -0.63000000
H       -0.63500000       2.00910000      -0.39380000
H       -0.26540000       1.60620000       1.28230000
H        3.70330000       3.10510000      -0.49500000
H        3.72970000       4.33790000      -2.83160000
H        3.77800000       2.56060000      -2.94420000
H        1.34160000       4.41150000      -3.13180000
H        1.63540000       2.89660000      -4.03040000
