12
Properties=species:S:1:pos:R:3 gdb_2007=T pbc="F F F"
N       -0.00880000      -1.07060000      -0.04680000
C       -0.00960000       0.08440000      -0.01330000
C        0.01290000       1.52510000       0.07000000
C       -0.67240000       2.45380000       1.11020000
C       -0.07850000       3.30670000      -0.03640000
C        1.23250000       2.48680000       0.02560000
O       -0.61610000       2.31760000      -1.01050000
H       -1.75960000       2.38750000       1.12770000
H       -0.22070000       2.52570000       2.10150000
H       -0.22600000       4.35990000      -0.26340000
H        1.85250000       2.56160000       0.92110000
H        1.80380000       2.44920000      -0.90120000
