21
Properties=species:S:1:pos:R:3 gdb_108572=T pbc="F F F"
C       -0.17770000       1.55750000       0.03600000
C        0.01060000       0.05490000       0.08890000
C        1.31100000      -0.65940000      -0.21150000
C        2.60550000       0.12620000      -0.11370000
O        2.55830000       0.82910000       1.12490000
C        1.71530000       0.12230000       2.03320000
C        0.73850000      -0.68550000       1.19140000
C        0.14660000      -1.92110000       1.80450000
O       -0.69490000      -1.51950000       2.88070000
H        0.70740000       2.09270000       0.38310000
H       -0.39140000       1.88070000      -0.98900000
H       -1.02670000       1.85770000       0.65960000
H       -0.85830000      -0.49410000      -0.26990000
H        1.30090000      -1.54220000      -0.84240000
H        3.46420000      -0.56420000      -0.14740000
H        2.74090000       0.87350000      -0.90380000
H        2.30200000      -0.56060000       2.66980000
H        1.24010000       0.86430000       2.68190000
H       -0.41890000      -2.48000000       1.04190000
H        0.95330000      -2.58100000       2.16570000
H       -0.99740000      -2.31090000       3.33640000
