16
Properties=species:S:1:pos:R:3 gdb_30315=T pbc="F F F"
C        0.00900000       1.60800000      -0.05320000
C       -0.00620000       0.08300000       0.10130000
C        0.74480000      -0.65650000      -1.08590000
O        1.61470000      -1.71170000      -0.56090000
C        1.62830000      -1.47430000       0.77010000
C        0.80820000      -0.50450000       1.20060000
O        0.90480000      -0.46040000       2.56500000
C        1.82310000      -1.43040000       2.83620000
N        2.29300000      -2.07660000       1.80450000
H        1.03550000       1.98460000      -0.09990000
H       -0.51270000       1.91170000      -0.96700000
H       -0.49210000       2.08840000       0.79230000
H       -1.05220000      -0.25230000       0.14970000
H        0.05810000      -1.12380000      -1.79330000
H        1.38270000       0.05640000      -1.61950000
H        2.08420000      -1.56430000       3.87370000
