16
Properties=species:S:1:pos:R:3 gdb_110163=T pbc="F F F"
C        0.02550000       1.37950000       0.21160000
N       -0.14820000       0.02210000      -0.31260000
C       -1.45670000      -0.52550000      -0.03170000
C       -1.62280000      -2.04400000      -0.31220000
O       -1.87750000      -2.27560000       1.12510000
C       -1.66680000      -0.95640000       1.42820000
O       -1.65820000      -0.44950000       2.50290000
C       -2.71340000      -2.47290000      -1.15770000
C       -3.61000000      -2.81480000      -1.88040000
H        1.02810000       1.73260000      -0.04230000
H       -0.71020000       2.10350000      -0.17800000
H       -0.06720000       1.35840000       1.29990000
H       -0.00430000       0.02690000      -1.31790000
H       -2.30820000       0.06790000      -0.40450000
H       -0.67650000      -2.51810000      -0.58460000
H       -4.40360000      -3.12530000      -2.51500000
