13
Properties=species:S:1:pos:R:3 gdb_20409=T pbc="F F F"
C        0.04190000       1.36280000      -0.11700000
C        1.52460000       1.85680000       0.07690000
C        2.12450000       0.61520000       0.65300000
N        3.25730000       0.13910000       1.15020000
N        2.93730000      -1.13500000       1.40100000
N        1.67560000      -1.53110000       1.11000000
C        1.17950000      -0.40610000       0.63350000
O       -0.02700000      -0.07880000       0.13870000
H       -0.63500000       1.84910000       0.59110000
H       -0.32860000       1.52660000      -1.13040000
H        1.98070000       2.14450000      -0.87600000
H        1.56720000       2.72570000       0.73920000
H        3.59660000      -1.77140000       1.81500000
