23
Properties=species:S:1:pos:R:3 gdb_115847=T pbc="F F F"
C       -0.00440000       1.62190000      -0.04510000
C       -0.01770000       0.09090000      -0.00870000
C        0.63830000      -0.53790000      -1.23490000
O        2.01020000      -0.13140000      -1.29970000
C        2.73570000      -1.08500000      -2.07140000
C        2.01930000      -2.41380000      -1.89530000
C        1.67420000      -2.84070000      -0.48710000
C        2.39910000      -2.35400000       0.75280000
C        0.66980000      -2.05740000      -1.30890000
H        1.02130000       1.99740000      -0.08570000
H       -0.53360000       1.99990000      -0.92730000
H       -0.49010000       2.04260000       0.84060000
H        0.48640000      -0.26990000       0.89360000
H       -1.05130000      -0.27440000       0.03990000
H        0.10860000      -0.17280000      -2.13510000
H        2.74400000      -0.80540000      -3.13750000
H        3.77010000      -1.07390000      -1.70970000
H        2.13140000      -3.15850000      -2.67530000
H        1.40870000      -3.89460000      -0.42760000
H        2.70110000      -1.30960000       0.66850000
H        1.76370000      -2.45420000       1.64000000
H        3.29760000      -2.95750000       0.92610000
H       -0.23670000      -2.55570000      -1.63520000
