21
Properties=species:S:1:pos:R:3 gdb_109713=T pbc="F F F"
C        0.10710000       1.11640000      -0.13230000
O       -0.41920000      -0.02970000       0.51100000
C        0.46580000      -0.63120000       1.40970000
C        0.14690000      -2.07420000       1.67690000
O       -0.92790000      -2.64790000       0.99940000
C        1.40020000      -1.70840000       0.90890000
C        1.64410000      -2.17260000      -0.53060000
C        3.00480000      -2.76570000      -0.05060000
C        2.84500000      -2.02370000       1.31170000
H        1.02010000       0.88480000      -0.69540000
H       -0.65930000       1.47950000      -0.82090000
H        0.33660000       1.90800000       0.59570000
H        0.79030000       0.01440000       2.22850000
H        0.25020000      -2.45410000       2.69100000
H       -1.34590000      -1.93520000       0.49820000
H        0.90700000      -2.88070000      -0.91640000
H        1.75880000      -1.35870000      -1.25240000
H        2.97160000      -3.85210000       0.05700000
H        3.88430000      -2.50400000      -0.64260000
H        3.47600000      -1.13160000       1.38890000
H        2.98220000      -2.62200000       2.21740000
