14
Properties=species:S:1:pos:R:3 gdb_124095=T pbc="F F F"
C        0.02390000       1.40670000       0.00930000
O        1.31480000       1.94440000      -0.00930000
C        2.08290000       1.63620000       1.16010000
C        1.83140000       0.19860000       1.45950000
C        0.87470000      -0.52810000       0.82910000
O        0.00880000      -0.02230000      -0.08430000
C        1.02210000      -1.83450000       1.36120000
N        1.99210000      -1.87530000       2.24600000
O        2.51070000      -0.57760000       2.31710000
H       -0.50620000       1.69200000       0.93220000
H       -0.49180000       1.77630000      -0.87630000
H        3.12750000       1.83140000       0.90060000
H        1.81040000       2.29660000       1.99760000
H        0.46800000      -2.73360000       1.13570000
