20
Properties=species:S:1:pos:R:3 gdb_82103=T pbc="F F F"
O       -0.01150000       1.41710000      -0.00590000
C       -0.05680000       0.00650000       0.03780000
C        0.29670000      -0.68350000       1.35550000
C       -0.61120000      -0.23510000       2.42850000
N       -1.09930000      -1.27310000       1.50510000
C       -1.49110000      -0.57240000       0.21660000
C       -2.67090000       0.35220000       0.25580000
C       -3.58170000       0.44680000      -0.94630000
C       -4.05980000      -0.23890000       0.30580000
H        0.91050000       1.69290000       0.02680000
H        0.46510000      -0.43220000      -0.82220000
H        1.18520000      -1.27880000       1.54120000
H       -0.43040000      -0.62110000       3.42680000
H       -1.02540000       0.76770000       2.39540000
H       -1.67570000      -1.36300000      -0.51710000
H       -2.52050000       1.27940000       0.79630000
H       -3.99260000       1.41850000      -1.19570000
H       -3.35120000      -0.17060000      -1.80860000
H       -4.14630000      -1.32010000       0.29510000
H       -4.80380000       0.25930000       0.91700000
