16
Properties=species:S:1:pos:R:3 gdb_22971=T pbc="F F F"
O       -0.24910000      -0.00960000       0.02270000
N        0.00520000       1.08950000      -0.41350000
C        1.18070000       1.71480000       0.15280000
C        1.93870000       1.03410000       1.15670000
N        2.54860000       0.48190000       1.97050000
C        1.47390000       2.93620000      -0.33300000
C        2.61050000       3.80770000       0.06810000
C        2.17910000       5.27720000       0.25530000
N        1.66030000       5.81970000      -0.99940000
H        2.42250000       6.02440000      -1.63860000
H        1.17730000       6.69610000      -0.83520000
H        0.79940000       3.32620000      -1.09170000
H        3.09970000       3.43030000       0.97060000
H        3.36220000       3.77450000      -0.73610000
H        1.37990000       5.32490000       1.00290000
H        3.03550000       5.83080000       0.67120000
