18
Properties=species:S:1:pos:R:3 gdb_87351=T pbc="F F F"
C        0.04820000       1.37420000      -0.07600000
C        0.20970000      -0.12560000       0.00420000
C        1.54980000      -0.76740000       0.06240000
C        0.66640000      -0.79910000       1.30730000
N        1.02060000       0.01980000       2.42480000
C        2.17600000      -0.14020000       3.14060000
O        3.04150000      -0.94720000       2.89340000
C        0.03780000      -2.11320000       1.63260000
O       -0.34240000      -2.90400000       0.80420000
H        0.84040000       1.89410000       0.46960000
H        0.09510000       1.70040000      -1.12000000
H       -0.91770000       1.69950000       0.32660000
H       -0.55700000      -0.70850000      -0.49870000
H        1.69190000      -1.72350000      -0.42700000
H        2.42770000      -0.13650000       0.13340000
H        0.35360000       0.69770000       2.76170000
H        2.23110000       0.57710000       3.98430000
H       -0.06100000      -2.31030000       2.72270000
