21
Properties=species:S:1:pos:R:3 gdb_100432=T pbc="F F F"
C       -0.11210000       1.28750000      -0.03650000
O        0.04640000      -0.13060000      -0.02270000
C        0.60410000      -0.68200000      -1.12440000
C        0.70800000      -2.18170000      -0.96410000
N        0.96460000       0.04560000      -2.09620000
C        1.56670000      -0.53440000      -3.28000000
C        1.06720000       0.16670000      -4.52520000
C        1.04280000      -0.55120000      -5.82130000
N       -0.21690000      -0.21380000      -5.13180000
H        0.85570000       1.78700000      -0.13720000
H       -0.74650000       1.60070000      -0.87040000
H       -0.57730000       1.54080000       0.91730000
H        0.26180000      -2.48690000      -0.01790000
H        0.19420000      -2.69930000      -1.77950000
H        1.75460000      -2.50050000      -0.98130000
H        2.65800000      -0.40260000      -3.22050000
H        1.38770000      -1.61740000      -3.38820000
H        1.23900000       1.24080000      -4.52430000
H        1.21500000      -0.01510000      -6.75030000
H        1.37020000      -1.58850000      -5.83530000
H       -0.58440000      -1.03960000      -4.66330000
