18
Properties=species:S:1:pos:R:3 gdb_11509=T pbc="F F F"
C        0.06750000       1.52390000       0.37900000
C        0.02370000       0.01970000       0.03150000
N        0.73870000      -0.88550000       0.93080000
C        2.17410000      -0.79690000       0.89120000
C        2.99270000       0.19460000       1.70020000
C        2.97350000      -1.27580000       2.06260000
C       -1.37800000      -0.42790000      -0.06290000
N       -2.48640000      -0.74840000      -0.12080000
H        1.10280000       1.86970000       0.39190000
H       -0.48920000       2.10800000      -0.35930000
H       -0.37770000       1.70370000       1.36220000
H        0.46510000      -0.11650000      -0.96460000
H        0.38340000      -0.80690000       1.87760000
H        2.56270000      -1.04920000      -0.09280000
H        3.89420000       0.61130000       1.26310000
H        2.45910000       0.87250000       2.35790000
H        2.43000000      -1.56490000       2.95690000
H        3.85700000      -1.87530000       1.87530000
