15
Properties=species:S:1:pos:R:3 gdb_25267=T pbc="F F F"
O        0.01460000      -0.04530000       0.00270000
C       -0.03310000       1.15310000       0.01040000
C       -1.26270000       2.06920000       0.03210000
C       -0.74050000       3.53370000       0.03200000
C        0.75180000       3.36330000       0.00950000
C        1.94450000       4.02080000      -0.00450000
N        2.99500000       3.10760000      -0.02470000
C        2.45030000       1.91930000      -0.02300000
N        1.07800000       2.01600000      -0.00190000
H       -1.88330000       1.83610000      -0.83720000
H       -1.85850000       1.82740000       0.91640000
H       -1.10070000       4.09010000      -0.83850000
H       -1.07530000       4.08130000       0.91820000
H        2.13440000       5.08270000      -0.00190000
H        2.96190000       0.97020000      -0.03540000
