23
Properties=species:S:1:pos:R:3 gdb_38676=T pbc="F F F"
C        0.09880000       1.35680000       0.93260000
C        1.22880000       0.86530000       0.05950000
C        2.57600000       0.40480000       0.61780000
C        2.66030000      -0.94850000       1.32860000
C        2.05220000      -2.12420000       0.51230000
C        0.76450000      -2.01840000       1.37760000
C        1.59580000      -1.22750000       2.42890000
C       -0.37770000      -1.26200000       0.69410000
C       -0.09820000       0.11650000       0.09380000
H        0.19860000       1.22910000       2.00480000
H       -0.42180000       2.26650000       0.65040000
H        1.35710000       1.44910000      -0.84870000
H        3.28370000       0.36380000      -0.22090000
H        2.95880000       1.18490000       1.29010000
H        3.69650000      -1.09390000       1.65010000
H        1.93810000      -1.97130000      -0.56540000
H        2.58670000      -3.06370000       0.67780000
H        0.36650000      -2.97300000       1.73610000
H        1.99220000      -1.89480000       3.19990000
H        1.12890000      -0.37710000       2.93050000
H       -0.74080000      -1.90720000      -0.11690000
H       -1.21640000      -1.17120000       1.39800000
H       -0.69950000       0.28860000      -0.79560000
