19
Properties=species:S:1:pos:R:3 gdb_119619=T pbc="F F F"
C       -0.37130000       1.34240000       0.82950000
O       -0.17710000      -0.03560000       1.04590000
C        0.84290000      -0.58050000       0.23970000
C        0.93040000      -2.05340000       0.53010000
C       -0.27160000      -2.92930000       0.82270000
C        0.81370000      -2.70760000       1.86490000
O        1.86170000      -3.64390000       1.95290000
C        2.34860000      -3.82110000       0.63730000
O        2.03430000      -2.65580000      -0.10790000
H       -0.65690000       1.55420000      -0.21260000
H       -1.17870000       1.66520000       1.49090000
H        0.53470000       1.92290000       1.06260000
H        0.62690000      -0.41450000      -0.82950000
H        1.81680000      -0.11100000       0.45570000
H       -1.20140000      -2.40090000       0.99920000
H       -0.36820000      -3.89400000       0.33710000
H        0.62060000      -2.19830000       2.79920000
H        3.43510000      -3.95300000       0.66470000
H        1.87810000      -4.70230000       0.17150000
