16
Properties=species:S:1:pos:R:3 gdb_53886=T pbc="F F F"
N       -0.00910000       1.32790000      -0.03870000
C        0.06400000      -0.01080000      -0.19380000
O        1.04510000      -0.64550000      -0.53040000
C       -1.28240000      -0.71040000       0.11490000
O       -2.24850000      -0.06140000       0.44570000
C       -1.27270000      -2.21550000      -0.01520000
C       -2.66380000      -2.83750000       0.13270000
C       -2.59170000      -4.33590000       0.31800000
O       -3.20140000      -5.14320000      -0.33260000
H        0.79970000       1.90010000      -0.21240000
H       -0.88460000       1.73970000       0.24140000
H       -0.79550000      -2.47400000      -0.96670000
H       -0.57610000      -2.59550000       0.74670000
H       -3.14650000      -2.41010000       1.02220000
H       -3.30140000      -2.61410000      -0.72590000
H       -1.90920000      -4.66010000       1.14030000
