19
Properties=species:S:1:pos:R:3 gdb_100986=T pbc="F F F"
O       -0.13480000       1.46680000       0.09360000
C       -0.18990000       0.09660000       0.42890000
C       -1.41680000      -0.56550000      -0.20940000
O       -1.41830000      -0.26940000      -1.60920000
C       -1.45790000      -2.06970000       0.00360000
O       -0.56660000      -2.76890000      -0.83680000
C       -1.62120000      -2.64020000       1.39140000
C       -2.73580000      -2.76790000       0.37360000
O       -3.88610000      -1.98970000       0.49570000
H       -0.40510000       1.50990000      -0.83320000
H        0.71750000      -0.44090000       0.10110000
H       -0.23800000       0.02440000       1.52030000
H       -2.32900000      -0.11410000       0.18830000
H       -0.68450000      -0.77810000      -1.97970000
H       -1.05410000      -3.01870000      -1.62980000
H       -1.04400000      -3.52470000       1.63470000
H       -1.77440000      -1.93860000       2.20490000
H       -2.88310000      -3.75410000      -0.06940000
H       -4.36790000      -2.28490000       1.27540000
