23
Properties=species:S:1:pos:R:3 gdb_81351=T pbc="F F F"
C       -0.12630000       1.55100000       0.09210000
C        0.00510000       0.03320000       0.04510000
C        0.71620000      -0.59370000      -1.20080000
C        2.06350000      -0.30150000      -0.47900000
C        1.21930000      -0.61300000       0.78860000
C        0.92740000      -2.10830000       0.60330000
O       -0.13630000      -2.48670000       1.46280000
C        0.57890000      -2.11230000      -0.94280000
C       -0.76470000      -2.73790000      -1.31160000
H        0.80250000       2.07670000      -0.14650000
H       -0.88710000       1.89140000      -0.61950000
H       -0.44250000       1.87770000       1.08890000
H       -0.95910000      -0.41060000       0.30520000
H        0.51350000      -0.24220000      -2.21500000
H        2.91060000      -0.95820000      -0.70430000
H        2.38530000       0.73760000      -0.53830000
H        1.52220000      -0.29960000       1.78860000
H        1.81500000      -2.72160000       0.81400000
H       -0.32920000      -3.41700000       1.31330000
H        1.36610000      -2.64490000      -1.49020000
H       -1.60140000      -2.25600000      -0.80030000
H       -0.93600000      -2.66230000      -2.39060000
H       -0.79320000      -3.80450000      -1.05770000
