17
Properties=species:S:1:pos:R:3 gdb_133763=T pbc="F F F"
C        0.40590000       1.21020000       0.51850000
N       -0.29280000       0.21360000      -0.28580000
C        0.51580000      -0.39830000      -1.32720000
C        1.27980000      -1.65480000      -0.85190000
O        0.43730000      -2.55260000      -0.14750000
C       -0.37550000      -0.72980000      -2.52640000
F       -1.01490000       0.33660000      -2.99880000
F        0.35040000      -1.24920000      -3.53420000
F       -1.31140000      -1.65500000      -2.20440000
H        1.33700000       0.85430000       0.99180000
H        0.65500000       2.07600000      -0.10450000
H       -0.26140000       1.55650000       1.31240000
H       -0.64220000      -0.53200000       0.30830000
H        1.24030000       0.33320000      -1.70290000
H        1.78110000      -2.14120000      -1.69930000
H        2.05030000      -1.34570000      -0.13990000
H       -0.21810000      -2.88990000      -0.76770000
