21
Properties=species:S:1:pos:R:3 gdb_40160=T pbc="F F F"
C       -0.19790000       1.41000000      -0.11280000
C        1.22240000       0.87170000       0.00270000
C        0.06120000      -0.06200000       0.06820000
C       -0.37230000      -0.83510000       1.29960000
C       -1.51060000      -1.69500000       0.72300000
C       -0.99960000      -1.97040000      -0.68190000
C       -0.60970000      -3.33820000      -1.16840000
C       -1.80300000      -2.60660000      -1.76870000
O       -0.14900000      -0.89800000      -1.05480000
H       -0.60600000       1.97830000       0.71690000
H       -0.52430000       1.73170000      -1.09530000
H        1.81880000       0.84800000      -0.90250000
H        1.78300000       1.06930000       0.91070000
H        0.44460000      -1.47270000       1.65700000
H       -0.68510000      -0.18640000       2.12060000
H       -1.70050000      -2.60910000       1.28970000
H       -2.44100000      -1.11690000       0.68530000
H        0.28580000      -3.40320000      -1.77620000
H       -0.79420000      -4.19580000      -0.52920000
H       -2.80250000      -2.96150000      -1.53800000
H       -1.68430000      -2.20040000      -2.76700000
