15
Properties=species:S:1:pos:R:3 gdb_13295=T pbc="F F F"
C       -0.52350000      -0.66940000      -0.95800000
C       -0.13390000       0.15800000      -0.18010000
C        0.33580000       1.15300000       0.77920000
C        1.62870000       1.80700000       0.37380000
N        2.70060000       1.79900000       1.05170000
C        3.68070000       2.58220000       0.28220000
C        2.92410000       3.00330000      -1.00520000
O        1.59370000       2.46880000      -0.81170000
H       -0.86760000      -1.39770000      -1.64970000
H       -0.42510000       1.93610000       0.89610000
H        0.49490000       0.70030000       1.76140000
H        4.01620000       3.44100000       0.87330000
H        4.56280000       1.96990000       0.06940000
H        2.84130000       4.08550000      -1.13560000
H        3.33760000       2.56630000      -1.91840000
