19
Properties=species:S:1:pos:R:3 gdb_123864=T pbc="F F F"
C       -0.01920000       1.54750000      -0.04870000
C        1.41110000       2.10860000       0.03150000
C        2.08360000       1.76490000       1.37460000
C        1.86310000       0.31740000       1.70060000
N        2.55230000      -0.35570000       2.61920000
N        2.01170000      -1.59090000       2.59240000
C        1.00700000      -1.71860000       1.68950000
C        0.87600000      -0.48770000       1.07960000
C       -0.03080000       0.00620000      -0.01090000
H       -0.60380000       1.93600000       0.79560000
H       -0.51340000       1.89770000      -0.96130000
H        2.00630000       1.69190000      -0.79200000
H        1.39940000       3.19470000      -0.10890000
H        3.15390000       1.99400000       1.34880000
H        1.65420000       2.39180000       2.16820000
H        2.37510000      -2.29450000       3.21160000
H        0.48210000      -2.65180000       1.55550000
H       -1.05460000      -0.36200000       0.12340000
H        0.30410000      -0.37760000      -0.98510000
