22
Properties=species:S:1:pos:R:3 gdb_13282=T pbc="F F F"
C       -0.09520000       1.49370000      -0.13350000
C       -0.02820000      -0.01420000       0.04220000
O       -1.33960000      -0.53400000      -0.01080000
C       -1.39500000      -1.93580000       0.14650000
C       -2.83840000      -2.38050000       0.05410000
C       -3.56280000      -2.30010000      -1.31860000
C       -4.22700000      -3.66850000      -1.00560000
C       -3.13970000      -3.90540000       0.07860000
H        0.90840000       1.92810000      -0.09840000
H       -0.55070000       1.74740000      -1.09500000
H       -0.69780000       1.94560000       0.65960000
H        0.59430000      -0.46810000      -0.74830000
H        0.44460000      -0.27070000       1.00610000
H       -0.79520000      -2.43420000      -0.63680000
H       -0.96180000      -2.23260000       1.11900000
H       -3.42000000      -1.85910000       0.82180000
H       -4.21370000      -1.44240000      -1.49990000
H       -2.84980000      -2.37420000      -2.14650000
H       -5.21930000      -3.54620000      -0.56200000
H       -4.30010000      -4.39700000      -1.81650000
H       -2.29750000      -4.48430000      -0.31580000
H       -3.44800000      -4.34890000       1.02850000
