14
Properties=species:S:1:pos:R:3 gdb_482=T pbc="F F F"
O       -0.05680000       1.42910000       0.04110000
C       -0.01110000       0.04550000       0.05090000
C       -0.28980000      -0.78030000      -1.17270000
C       -1.18750000      -0.91940000       0.04030000
C       -0.49340000      -1.79660000       1.08910000
C        0.70110000      -0.78320000       1.12730000
H        0.65890000       1.75230000      -0.51710000
H       -0.72950000      -0.21950000      -1.99160000
H        0.36600000      -1.59500000      -1.47570000
H       -2.24860000      -0.71140000      -0.01830000
H       -1.02810000      -1.84800000       2.03970000
H       -0.25250000      -2.81490000       0.76650000
H        1.69810000      -1.16450000       0.88060000
H        0.74960000      -0.24790000       2.07820000
