21
Properties=species:S:1:pos:R:3 gdb_59414=T pbc="F F F"
C        1.05150000       0.66090000      -1.13900000
C        1.78740000      -0.50410000      -0.45900000
C        3.28740000      -0.21800000      -0.30170000
C        1.16350000      -0.77470000       0.89530000
O       -0.10960000      -1.40480000       0.94730000
C        1.01200000      -2.12350000       1.50410000
C        1.43260000      -3.41370000       0.84990000
C        0.97180000      -2.12960000       3.00510000
O        1.46740000      -2.98270000       3.69570000
H        1.15500000       1.58480000      -0.55790000
H        1.46070000       0.84730000      -2.13680000
H       -0.01520000       0.44200000      -1.24030000
H        1.65870000      -1.39470000      -1.08240000
H        3.45650000       0.65530000       0.33910000
H        3.81610000      -1.06690000       0.14290000
H        3.74330000      -0.00670000      -1.27360000
H        1.25700000       0.06690000       1.59030000
H        0.73220000      -4.21060000       1.11660000
H        1.45970000      -3.32810000      -0.23640000
H        2.41910000      -3.71100000       1.21550000
H        0.42670000      -1.25820000       3.43240000
