21
Properties=species:S:1:pos:R:3 gdb_120068=T pbc="F F F"
C        0.06380000       1.60190000       0.02400000
C        0.00270000       0.07440000       0.10470000
C       -1.39730000      -0.48850000      -0.17380000
C       -1.45770000      -2.01000000      -0.11290000
C       -1.46030000      -2.71510000       1.26750000
C       -2.99470000      -2.48930000       1.46750000
O       -3.28740000      -3.88720000       1.76190000
C       -2.27090000      -3.92810000       0.71630000
C       -2.83790000      -2.70860000      -0.07310000
H        1.07320000       1.97380000       0.22580000
H       -0.22980000       1.95780000      -0.96990000
H       -0.61270000       2.06420000       0.75170000
H        0.71380000      -0.36010000      -0.61040000
H        0.33420000      -0.25450000       1.09810000
H       -2.11070000      -0.05830000       0.54260000
H       -1.72830000      -0.15520000      -1.16740000
H       -0.75710000      -2.45250000      -0.83270000
H       -0.70090000      -2.74580000       2.04920000
H       -3.53140000      -1.72100000       2.02210000
H       -1.92320000      -4.89560000       0.35510000
H       -3.63840000      -2.72680000      -0.81330000
