15
Properties=species:S:1:pos:R:3 gdb_12436=T pbc="F F F"
N       -0.07430000       1.35100000       0.14160000
C       -0.00870000       0.10770000      -0.06810000
O        1.18270000      -0.56030000      -0.11080000
C        1.45630000      -1.58700000      -1.07990000
C        0.69790000      -2.87020000      -0.86840000
C       -0.63170000      -2.88390000      -0.86760000
C       -1.41490000      -1.61280000      -1.06630000
O       -1.15790000      -0.60430000      -0.07890000
H        0.87010000       1.72720000       0.21250000
H        1.26580000      -1.18730000      -2.08720000
H        2.53190000      -1.74920000      -0.99190000
H        1.27110000      -3.77800000      -0.70690000
H       -1.18530000      -3.80360000      -0.70490000
H       -1.23160000      -1.19470000      -2.06730000
H       -2.48730000      -1.79570000      -0.98210000
