18
Properties=species:S:1:pos:R:3 gdb_125572=T pbc="F F F"
C       -0.50820000       1.40070000      -0.14210000
C       -0.11570000      -0.03870000      -0.02890000
N        1.14960000      -0.40680000      -0.20410000
N        1.13890000      -1.75240000      -0.03080000
C       -0.09580000      -2.24060000       0.25000000
C       -0.94640000      -1.15200000       0.26180000
N       -0.30580000      -3.61560000       0.38620000
C        0.07270000      -4.27080000       1.64840000
C       -1.35660000      -4.06690000       1.28890000
H       -0.94040000       1.77480000       0.79290000
H        0.36910000       2.00530000      -0.38190000
H       -1.25720000       1.55100000      -0.92750000
H        1.98640000      -2.27900000      -0.15460000
H       -2.00970000      -1.16120000       0.43750000
H        0.53450000      -5.24700000       1.54000000
H        0.48300000      -3.64250000       2.43490000
H       -1.90180000      -3.30870000       1.84500000
H       -1.95550000      -4.89530000       0.92380000
