22
Properties=species:S:1:pos:R:3 gdb_102555=T pbc="F F F"
C        0.16480000       1.21360000      -0.33050000
O        0.05650000      -0.19280000      -0.22620000
C       -1.26250000      -0.67280000       0.04330000
C       -2.04940000      -0.75630000      -1.27870000
O       -1.30840000      -1.39170000      -2.29950000
C       -1.13420000      -1.99650000       0.78750000
C       -0.34100000      -3.09930000       0.11700000
C       -1.17090000      -1.92310000       2.27060000
N       -2.33140000      -2.44870000       1.52270000
H        1.21980000       1.44090000      -0.50070000
H       -0.42130000       1.62260000      -1.16550000
H       -0.16060000       1.70780000       0.59660000
H       -1.78500000       0.03650000       0.70670000
H       -2.96990000      -1.33060000      -1.12680000
H       -2.34750000       0.26020000      -1.58530000
H       -0.39760000      -1.09100000      -2.18410000
H        0.69390000      -2.77930000      -0.03830000
H       -0.34200000      -3.99070000       0.74900000
H       -0.76790000      -3.35630000      -0.85480000
H       -0.63680000      -2.66350000       2.85990000
H       -1.25030000      -0.94600000       2.74070000
H       -3.06350000      -1.74170000       1.48560000
