19
Properties=species:S:1:pos:R:3 gdb_101908=T pbc="F F F"
O        0.15380000       1.26530000      -0.36570000
C        0.07870000      -0.12530000      -0.15150000
C       -1.35820000      -0.55680000       0.14800000
O       -2.21940000      -0.07660000      -0.89440000
C       -1.50330000      -2.06320000       0.36060000
C       -2.92740000      -2.45550000       0.74120000
O       -3.00870000      -3.87170000       0.94030000
C       -3.81010000      -4.58520000       0.12770000
O       -3.92600000      -5.77020000       0.20950000
H       -0.62110000       1.48930000      -0.89710000
H        0.44730000      -0.69300000      -1.02700000
H        0.73460000      -0.36680000       0.69190000
H       -1.69640000      -0.01700000       1.04100000
H       -1.99020000      -0.55080000      -1.70370000
H       -1.21230000      -2.59780000      -0.55430000
H       -0.81570000      -2.39250000       1.14770000
H       -3.22190000      -1.98100000       1.68300000
H       -3.63450000      -2.13600000      -0.03270000
H       -4.34170000      -3.95250000      -0.61110000
