21
Properties=species:S:1:pos:R:3 gdb_70756=T pbc="F F F"
O        0.05880000       1.35110000      -0.09680000
C        0.05760000      -0.05180000      -0.04370000
C       -0.43330000      -0.74100000      -1.28000000
C       -1.28140000      -0.74560000      -0.01920000
C       -1.49710000      -1.97990000       0.83860000
C       -1.27400000      -1.69510000       2.33610000
C        0.19820000      -1.56020000       2.75200000
O        0.91800000      -0.48020000       2.17750000
C        1.18190000      -0.62840000       0.78670000
H       -0.01440000       1.65890000       0.81480000
H       -0.75000000      -0.10510000      -2.09880000
H        0.04910000      -1.66590000      -1.58130000
H       -2.11960000      -0.05380000      -0.03990000
H       -2.51510000      -2.35610000       0.68320000
H       -0.82980000      -2.79130000       0.52040000
H       -1.81540000      -0.78460000       2.62210000
H       -1.69670000      -2.51260000       2.93530000
H        0.25530000      -1.40170000       3.83410000
H        0.72230000      -2.50600000       2.52960000
H        1.36280000      -1.68460000       0.54060000
H        2.10020000      -0.06800000       0.58070000
