20
Properties=species:S:1:pos:R:3 gdb_86590=T pbc="F F F"
C        0.08440000       1.66330000      -0.14700000
C        0.08780000       0.14790000      -0.00530000
C        0.66920000      -0.76000000      -1.13630000
C        1.42520000      -1.62970000      -0.07640000
C        2.85610000      -2.02690000      -0.30190000
C        3.44440000      -3.17920000       0.42280000
N        3.19630000      -3.26580000      -1.02720000
C        1.13210000      -0.48820000       0.92750000
O        1.64650000      -0.13980000       1.95050000
H        1.07050000       2.03100000      -0.44860000
H       -0.64310000       1.98970000      -0.89650000
H       -0.17000000       2.13710000       0.80570000
H       -0.90720000      -0.21130000       0.28930000
H       -0.05100000      -1.27950000      -1.76940000
H        1.37030000      -0.21160000      -1.77210000
H        0.82770000      -2.50950000       0.19870000
H        3.51570000      -1.19750000      -0.55160000
H        4.49170000      -3.16340000       0.70930000
H        2.80030000      -3.73470000       1.09990000
H        2.35100000      -3.80620000      -1.19870000
