11
Properties=species:S:1:pos:R:3 gdb_21355=T pbc="F F F"
N        0.00490000       1.33800000       0.00930000
C        1.29110000       1.86850000       0.00010000
C        2.12020000       0.77350000      -0.01390000
O        3.40520000       0.42860000      -0.02810000
N        3.36160000      -1.09440000      -0.03680000
N        2.18000000      -1.46680000      -0.02650000
C        1.31970000      -0.39340000      -0.01250000
C       -0.01450000      -0.02680000       0.00260000
H       -0.82590000       1.90580000       0.02030000
H        1.46220000       2.92980000       0.00430000
H       -0.93340000      -0.58630000       0.00860000
