23
Properties=species:S:1:pos:R:3 gdb_104212=T pbc="F F F"
C       -0.11100000       1.60490000       0.03000000
C       -0.27740000       0.09990000      -0.21200000
C        0.68960000      -0.49750000      -1.24050000
C        0.49100000       0.07980000      -2.64580000
C        2.20120000      -0.54350000      -0.81890000
C        2.27180000      -2.04950000      -1.21020000
C        0.74630000      -2.04230000      -1.28970000
C       -0.20630000      -3.02150000      -0.76280000
O       -0.01600000      -2.84470000      -2.17470000
H        0.91420000       1.84840000       0.32980000
H       -0.34400000       2.19130000      -0.86370000
H       -0.77830000       1.94440000       0.82820000
H       -0.14170000      -0.43010000       0.73940000
H       -1.30840000      -0.10460000      -0.53150000
H        0.67560000       1.15820000      -2.66210000
H        1.17350000      -0.38460000      -3.36440000
H       -0.52860000      -0.10320000      -2.99940000
H        2.87080000       0.12870000      -1.35950000
H        2.33740000      -0.38440000       0.25410000
H        2.72780000      -2.21580000      -2.19000000
H        2.73060000      -2.73300000      -0.49200000
H        0.15840000      -3.96550000      -0.35810000
H       -1.17340000      -2.69800000      -0.38000000
