18
Properties=species:S:1:pos:R:3 gdb_46063=T pbc="F F F"
O        0.08390000       0.00340000       0.11260000
C        0.01970000       1.20370000       0.11400000
C       -1.26350000       2.04570000      -0.00440000
N       -0.85120000       3.44720000      -0.12620000
C        0.48320000       3.53840000       0.51490000
C        1.18270000       2.19220000       0.24190000
C        1.23800000       4.74630000       0.02420000
C        1.13740000       6.04930000       0.68910000
O        2.29100000       5.22050000       0.85990000
H       -1.88360000       1.71550000      -0.84130000
H       -1.85180000       1.89540000       0.91230000
H       -0.75230000       3.67590000      -1.11190000
H        0.33170000       3.65430000       1.59590000
H        1.89880000       1.87410000       1.00190000
H        1.71250000       2.21860000      -0.72050000
H        1.48730000       4.73030000      -1.04100000
H        1.29870000       6.96230000       0.11870000
H        0.50080000       6.15110000       1.56630000
