18
Properties=species:S:1:pos:R:3 gdb_63595=T pbc="F F F"
C       -0.13010000       1.52900000      -0.12720000
C       -0.03680000       0.02380000      -0.00400000
C       -1.23090000      -0.74340000      -0.53450000
N        1.30490000      -0.52770000      -0.22410000
C        0.72080000      -0.58910000       1.14540000
C        1.34810000       0.17990000       2.17730000
C        1.85060000       0.81360000       3.07940000
C        2.41810000       1.52750000       4.08760000
C        2.92090000       2.16080000       4.98500000
H        0.77210000       2.00720000       0.25700000
H       -0.24990000       1.81440000      -1.17810000
H       -0.99230000       1.91180000       0.42900000
H       -1.34850000      -0.56990000      -1.61050000
H       -1.12090000      -1.82110000      -0.37450000
H       -2.15630000      -0.42170000      -0.04510000
H        1.24520000      -1.45380000      -0.64340000
H        0.35380000      -1.55880000       1.47780000
H        3.36540000       2.71780000       5.77200000
