18
Properties=species:S:1:pos:R:3 gdb_59899=T pbc="F F F"
C       -0.21750000       1.53800000       0.09510000
C        0.01820000       0.03780000       0.02150000
C        0.74630000      -0.52940000       1.23410000
O       -1.30670000      -0.57170000      -0.07730000
C       -1.38540000      -1.76310000      -0.68370000
O       -0.46840000      -2.37970000      -1.15350000
C       -2.84910000      -2.21390000      -0.68960000
C       -3.04610000      -3.52210000      -1.30060000
N       -3.23780000      -4.55570000      -1.77700000
H        0.74110000       2.06260000       0.14060000
H       -0.76200000       1.89120000      -0.78450000
H       -0.79470000       1.79830000       0.98780000
H        0.55990000      -0.22650000      -0.89050000
H        1.73160000      -0.06270000       1.32650000
H        0.18350000      -0.32880000       2.15120000
H        0.88870000      -1.60720000       1.13000000
H       -3.21790000      -2.22300000       0.34160000
H       -3.44410000      -1.46140000      -1.21840000
