20
Properties=species:S:1:pos:R:3 gdb_82454=T pbc="F F F"
C       -0.10090000       1.56100000      -0.06100000
C        0.09600000       0.06130000       0.07920000
N        1.09530000      -0.64870000      -0.83700000
C        2.42150000       0.00920000      -0.49590000
C        2.34430000      -0.61060000       0.88580000
C        3.40100000      -0.77210000       1.93600000
C        1.36950000      -1.62390000       0.32950000
C        0.82610000      -0.58170000       1.24910000
O        0.38640000      -0.79240000       2.54100000
H        0.77860000       2.13740000       0.23730000
H       -0.34460000       1.81660000      -1.09800000
H       -0.93760000       1.88500000       0.56710000
H       -0.86080000      -0.44980000      -0.07660000
H        3.20240000      -0.44250000      -1.11630000
H        2.45520000       1.09710000      -0.61720000
H        3.74070000       0.20160000       2.31070000
H        3.01650000      -1.34190000       2.78780000
H        4.27880000      -1.29850000       1.54550000
H        1.31690000      -2.70240000       0.28250000
H        0.60970000      -0.01960000       3.07220000
