14
Properties=species:S:1:pos:R:3 gdb_128199=T pbc="F F F"
C        0.01230000       1.49000000      -0.00080000
N       -0.01160000       0.03580000      -0.06210000
C        0.55930000      -0.71000000      -1.03460000
C        0.63010000      -2.07460000      -1.04260000
C        1.24330000      -2.74380000      -2.14270000
O        1.40010000      -3.91770000      -2.33250000
O        1.73490000      -1.86220000      -3.14920000
N        1.63300000      -0.48390000      -3.07170000
N        1.08710000       0.04780000      -2.08940000
H        1.01330000       1.87960000       0.21690000
H       -0.32420000       1.92120000      -0.94480000
H       -0.66750000       1.80510000       0.79260000
H       -0.34050000      -0.46120000       0.74870000
H        0.23410000      -2.68360000      -0.23940000
