23
Properties=species:S:1:pos:R:3 gdb_101484=T pbc="F F F"
C       -0.02780000       1.38710000       0.00530000
O       -0.02570000      -0.01550000       0.12560000
C       -1.31320000      -0.61920000       0.13010000
C       -1.97840000      -0.59970000      -1.24560000
C       -1.09040000      -2.05200000       0.63740000
C       -0.56790000      -2.12240000       2.08800000
C       -1.82600000      -2.47920000       2.89660000
C       -2.59500000      -3.33460000       1.88960000
O       -2.34760000      -2.73990000       0.62040000
H        1.00490000       1.72230000       0.13260000
H       -0.38430000       1.72800000      -0.97710000
H       -0.65120000       1.86120000       0.78020000
H       -1.95990000      -0.09440000       0.85570000
H       -2.91220000      -1.16450000      -1.20780000
H       -2.20520000       0.41920000      -1.57190000
H       -1.31910000      -1.06150000      -1.98820000
H       -0.39770000      -2.54830000      -0.05630000
H        0.18080000      -2.91480000       2.18230000
H       -0.09640000      -1.18560000       2.38800000
H       -1.60670000      -3.00650000       3.82820000
H       -2.40110000      -1.58030000       3.14250000
H       -2.23330000      -4.37570000       1.90410000
H       -3.67740000      -3.34930000       2.05040000
