17
Properties=species:S:1:pos:R:3 gdb_126489=T pbc="F F F"
C        0.11030000       1.56820000       0.12330000
C       -0.11470000       0.06120000      -0.09510000
C        0.69990000      -0.48940000      -1.22390000
N        0.17840000      -0.78110000      -2.38510000
O        1.20930000      -1.23800000      -3.16470000
N        2.38490000      -1.23230000      -2.47620000
C        2.10430000      -0.78040000      -1.28350000
C        3.17020000      -0.61140000      -0.24180000
O        3.44390000       0.75540000       0.04080000
H        1.16430000       1.77450000       0.32460000
H       -0.19090000       2.13490000      -0.76270000
H       -0.48400000       1.91990000       0.97140000
H        0.13850000      -0.48340000       0.82240000
H       -1.16830000      -0.14000000      -0.30730000
H        2.84240000      -1.04730000       0.70690000
H        4.06830000      -1.14990000      -0.56850000
H        3.78040000       1.15880000      -0.76700000
