19
Properties=species:S:1:pos:R:3 gdb_36626=T pbc="F F F"
C        0.01140000      -1.22810000      -0.07220000
C       -0.01440000      -0.02710000      -0.11290000
C       -0.00710000       1.42910000      -0.15240000
C        1.39690000       2.02430000       0.13780000
C        1.41390000       3.52130000       0.10650000
C        1.63140000       4.36870000       1.10940000
C        1.57070000       5.78600000       0.62070000
O        1.27190000       5.68800000      -0.77040000
C        1.18940000       4.32170000      -1.15560000
H        0.01840000      -2.28930000      -0.04060000
H       -0.35790000       1.76950000      -1.13430000
H       -0.72070000       1.82480000       0.58060000
H        1.73500000       1.66770000       1.11500000
H        2.09770000       1.62300000      -0.60530000
H        1.83970000       4.10500000       2.13930000
H        0.79130000       6.37800000       1.12630000
H        2.52370000       6.32110000       0.76440000
H        1.95000000       4.09430000      -1.92180000
H        0.20710000       4.12820000      -1.61570000
