10
Properties=species:S:1:pos:R:3 gdb_2609=T pbc="F F F"
C       -0.07110000      -1.22730000      -0.00380000
C       -0.02430000      -0.02860000       0.00220000
C        0.02140000       1.43340000       0.00950000
C        1.38150000       1.96620000      -0.00060000
C        2.50200000       2.41340000      -0.00890000
C        3.76990000       2.92080000      -0.01820000
N        4.84740000       3.35410000      -0.02620000
H       -0.10960000      -2.28890000      -0.00920000
H       -0.52210000       1.82920000      -0.85970000
H       -0.50540000       1.81980000       0.89320000
