19
Properties=species:S:1:pos:R:3 gdb_115553=T pbc="F F F"
C       -0.05730000       1.45770000       0.17700000
O        0.49920000       0.17890000      -0.04690000
C        0.72310000      -0.54010000       1.12910000
C       -0.46710000      -1.30930000       1.74310000
O        0.20350000      -2.57260000       1.56620000
C        1.33880000      -1.95600000       0.88470000
C        1.41890000      -2.40540000      -0.57060000
C        2.58750000      -2.20220000       1.59810000
C        3.62150000      -2.38950000       2.18190000
H        0.59140000       2.07160000       0.82020000
H       -0.15480000       1.94180000      -0.79710000
H       -1.05180000       1.39810000       0.64360000
H        1.28980000       0.05820000       1.85380000
H       -0.69170000      -1.10850000       2.79670000
H       -1.38820000      -1.24230000       1.15010000
H        0.48590000      -2.17480000      -1.08670000
H        2.23980000      -1.89900000      -1.08480000
H        1.59470000      -3.48380000      -0.60140000
H        4.53230000      -2.56310000       2.70000000
