17
Properties=species:S:1:pos:R:3 gdb_71085=T pbc="F F F"
C       -0.04090000       1.46740000       0.13350000
C       -0.09630000      -0.02120000      -0.03780000
C        0.35120000      -0.78680000      -1.30770000
C       -0.41940000      -1.93960000      -0.64880000
C        0.09050000      -2.00850000       0.85170000
O        0.67340000      -0.70310000       0.98880000
C       -1.36970000      -1.70910000       1.25640000
O       -2.15210000      -2.12040000       2.06020000
C       -1.43280000      -0.87780000      -0.01430000
H        0.99950000       1.80760000       0.10650000
H       -0.59040000       1.97000000      -0.66720000
H       -0.47220000       1.76150000       1.09470000
H       -0.15900000      -0.43540000      -2.20780000
H        1.42640000      -0.88190000      -1.47810000
H       -0.73920000      -2.85660000      -1.13670000
H        0.71670000      -2.79130000       1.27140000
H       -2.33330000      -0.50530000      -0.49380000
