19
Properties=species:S:1:pos:R:3 gdb_62478=T pbc="F F F"
C       -0.18210000       1.49270000       0.02740000
C       -0.05670000      -0.02970000       0.03360000
O       -1.30090000      -0.66160000      -0.18790000
C        1.09800000      -0.56350000      -0.85630000
O        1.18470000      -0.74110000      -2.03730000
C        1.97000000      -0.90960000       0.36220000
C        0.72630000      -0.62580000       1.22650000
C        0.66070000      -0.20510000       2.66320000
C        0.13320000      -1.55680000       2.23810000
H        0.77610000       1.97840000       0.23730000
H       -0.53330000       1.84120000      -0.94980000
H       -0.90370000       1.80590000       0.78790000
H       -1.53070000      -0.53330000      -1.11580000
H        2.37210000      -1.92670000       0.37160000
H        2.79800000      -0.20470000       0.50080000
H        1.58890000      -0.16710000       3.22450000
H       -0.05910000       0.55800000       2.94220000
H       -0.94060000      -1.70150000       2.20650000
H        0.70280000      -2.43910000       2.51220000
