18
Properties=species:S:1:pos:R:3 gdb_10274=T pbc="F F F"
C       -0.76260000      -0.68800000       1.16920000
N       -0.03290000      -0.10570000       0.05000000
C        0.60210000      -0.71570000      -0.99720000
N        1.22550000      -0.11030000      -1.94740000
C        1.26850000       1.33550000      -1.92230000
C        0.59040000      -2.23220000      -1.07610000
C        1.30850000      -2.84870000      -2.25530000
O        0.03370000      -2.90650000      -0.23590000
H       -1.62260000      -1.27620000       0.84080000
H       -0.13180000      -1.33670000       1.78120000
H       -1.11980000       0.13910000       1.78870000
H        0.01340000       0.89800000       0.04100000
H        0.26240000       1.78770000      -1.96220000
H        1.76320000       1.72670000      -1.01660000
H        1.82780000       1.70190000      -2.78640000
H        2.35850000      -2.54580000      -2.26220000
H        1.22100000      -3.93380000      -2.18800000
H        0.88270000      -2.48420000      -3.19340000
