19
Properties=species:S:1:pos:R:3 gdb_113366=T pbc="F F F"
O       -0.18800000       1.41000000      -0.34290000
C       -0.07420000       0.09630000       0.17930000
C       -1.38060000      -0.65830000       0.05690000
C       -1.70340000      -1.47920000      -1.14960000
C       -1.48320000      -2.17940000       0.19020000
C       -0.27620000      -3.07350000       0.38770000
O       -0.52490000      -4.39240000      -0.07800000
C       -2.72470000      -2.65830000       0.87310000
O       -3.81230000      -2.14850000       0.74300000
H       -0.47310000       1.33490000      -1.26000000
H        0.74430000      -0.45540000      -0.30710000
H        0.19840000       0.22320000       1.23230000
H       -2.22630000      -0.13720000       0.49750000
H       -2.72110000      -1.46640000      -1.52320000
H       -0.92710000      -1.61610000      -1.89830000
H        0.61470000      -2.64110000      -0.08760000
H       -0.05170000      -3.18350000       1.45480000
H       -0.76180000      -4.33300000      -1.01000000
H       -2.57760000      -3.53730000       1.53540000
