22
Properties=species:S:1:pos:R:3 gdb_76800=T pbc="F F F"
C       -0.14490000       1.56880000       0.04060000
C        0.13790000       0.06820000      -0.04170000
N        1.18880000      -0.39230000      -0.98160000
C        1.58330000       0.37040000      -2.14130000
C        2.14040000      -0.75920000       0.09530000
C        3.38420000       0.11060000       0.28210000
C        0.99540000      -0.51750000       1.08900000
C        1.01100000      -0.24220000       2.52390000
O        0.53060000      -1.49120000       2.00210000
H        0.75650000       2.14620000       0.26900000
H       -0.55960000       1.94410000      -0.90070000
H       -0.88220000       1.76730000       0.82570000
H       -0.80830000      -0.47140000      -0.18650000
H        1.98490000       1.37710000      -1.93160000
H        2.34840000      -0.18250000      -2.69760000
H        0.72250000       0.48930000      -2.80880000
H        2.44170000      -1.81420000       0.03580000
H        3.13120000       1.16500000       0.43150000
H        3.94960000      -0.22910000       1.15630000
H        4.04860000       0.04000000      -0.58530000
H        1.94630000      -0.29780000       3.07990000
H        0.25100000       0.40260000       2.96390000
