16
Properties=species:S:1:pos:R:3 gdb_99564=T pbc="F F F"
C        0.24180000       1.35670000       0.21160000
O       -0.05210000      -0.01280000      -0.01940000
C        0.55560000      -0.56290000      -1.16110000
C        2.02660000      -0.63290000      -1.01390000
N        3.17650000      -0.65400000      -0.90680000
C       -0.04830000      -1.98360000      -1.32660000
O        0.14450000      -2.73440000      -0.14990000
C       -1.45860000      -1.88180000      -1.72030000
C       -2.61380000      -1.80520000      -2.04050000
H        1.31470000       1.51430000       0.38000000
H       -0.08500000       1.97830000      -0.63340000
H       -0.31100000       1.64660000       1.10650000
H        0.33230000       0.03330000      -2.05900000
H        0.51240000      -2.50100000      -2.11270000
H       -0.24140000      -2.22030000       0.57110000
H       -3.63610000      -1.74760000      -2.32400000
