17
Properties=species:S:1:pos:R:3 gdb_105742=T pbc="F F F"
O        0.16330000       1.53090000      -0.08620000
C        0.09590000       0.14570000       0.18910000
C       -1.34100000      -0.42740000       0.18390000
C       -1.32870000      -1.98470000       0.19400000
N       -2.41270000      -2.26440000       1.14120000
C       -2.63640000      -1.09230000       1.83520000
N       -2.10460000      -0.02180000       1.37980000
C       -2.05950000       0.11970000      -1.05520000
O       -1.89620000      -0.31550000      -2.16740000
H        0.14080000       1.65070000      -1.04070000
H        0.70220000      -0.43710000      -0.51970000
H        0.50740000       0.00180000       1.19290000
H       -1.52150000      -2.39860000      -0.79810000
H       -0.36510000      -2.37090000       0.55650000
H       -2.42720000      -3.14360000       1.63540000
H       -3.28170000      -1.11160000       2.70940000
H       -2.73760000       0.97170000      -0.84550000
