17
Properties=species:S:1:pos:R:3 gdb_34758=T pbc="F F F"
N       -0.11320000      -1.19900000      -0.15120000
C       -0.06330000      -0.04630000      -0.07650000
C       -0.01080000       1.40130000       0.00730000
C        0.09120000       2.07220000       1.39980000
C        1.57250000       1.60390000       1.55770000
C        2.31460000       2.70180000       2.30690000
C        1.60980000       3.91960000       1.64620000
N        0.65000000       3.30670000       0.69530000
C        1.36830000       2.10160000       0.09170000
H       -0.71950000       1.87460000      -0.67410000
H       -0.69070000       2.14640000       2.15730000
H        1.80850000       0.55930000       1.76470000
H        2.15740000       2.64710000       3.38810000
H        3.39260000       2.67560000       2.12310000
H        1.05940000       4.53940000       2.35910000
H        2.29520000       4.56790000       1.09350000
H        2.10490000       2.21080000      -0.70590000
