20
Properties=species:S:1:pos:R:3 gdb_103257=T pbc="F F F"
C        0.49280000       0.23760000      -1.42190000
C       -0.04330000       0.08960000       0.00940000
C       -1.43230000      -0.53590000       0.07130000
C       -2.51250000       0.27460000      -0.62800000
C       -1.65620000      -2.02220000       0.02000000
N       -1.97980000      -1.18630000       1.27390000
C       -0.86440000      -1.87450000       2.01340000
C       -0.59880000      -2.76430000       0.78380000
O        0.02260000      -3.76910000       0.58900000
H        1.50880000       0.64250000      -1.40640000
H        0.52640000      -0.73190000      -1.92940000
H       -0.12140000       0.91280000      -2.02390000
H        0.67750000      -0.49690000       0.58270000
H       -0.09310000       1.07630000       0.48860000
H       -2.34720000       0.31570000      -1.70800000
H       -3.49540000      -0.16270000      -0.44020000
H       -2.51900000       1.30030000      -0.24360000
H       -2.41520000      -2.46860000      -0.61440000
H       -0.07590000      -1.23060000       2.40760000
H       -1.28320000      -2.47060000       2.82980000
