25
Properties=species:S:1:pos:R:3 gdb_118226=T pbc="F F F"
C        0.30220000       1.03570000       0.32440000
C       -0.65430000      -0.07190000      -0.11780000
O       -0.31150000      -0.68320000      -1.34670000
C        0.77800000      -1.60690000      -1.31000000
C        0.28520000      -2.89370000      -1.97160000
C        2.01910000      -1.00100000      -2.00620000
C        3.37740000      -1.34140000      -1.37330000
C        3.74840000      -2.82500000      -1.40980000
O        4.40760000      -0.55140000      -1.96460000
H        1.30480000       0.64830000       0.53220000
H        0.38570000       1.80390000      -0.45010000
H       -0.06860000       1.50790000       1.24060000
H       -0.73860000      -0.83290000       0.67560000
H       -1.65560000       0.34560000      -0.27100000
H        1.02950000      -1.81770000      -0.25840000
H        1.07750000      -3.64460000      -2.03810000
H       -0.55160000      -3.31850000      -1.41000000
H       -0.06380000      -2.67140000      -2.98500000
H        2.03020000      -1.29960000      -3.06460000
H        1.91890000       0.08690000      -1.99140000
H        3.36050000      -1.01310000      -0.32550000
H        3.05350000      -3.43400000      -0.82340000
H        3.74130000      -3.20530000      -2.43930000
H        4.75330000      -2.96370000      -1.00180000
H        4.46690000      -0.80070000      -2.89370000
