15
Properties=species:S:1:pos:R:3 gdb_126724=T pbc="F F F"
C       -0.05170000       1.52030000      -0.36640000
C       -0.04900000       0.09390000       0.18230000
N       -1.35970000      -0.54280000       0.08450000
C       -1.88740000      -1.26210000      -0.92360000
C       -3.16740000      -1.55720000      -0.49700000
N       -3.34950000      -1.00130000       0.74250000
N       -2.25940000      -0.39120000       1.08460000
C       -4.16680000      -2.30600000      -1.16860000
N       -4.96620000      -2.91950000      -1.73740000
H        0.94300000       1.96020000      -0.25250000
H       -0.31450000       1.53640000      -1.42800000
H       -0.76920000       2.13810000       0.17900000
H        0.66460000      -0.53850000      -0.35240000
H        0.21470000       0.08300000       1.24180000
H       -1.34850000      -1.50820000      -1.82260000
