19
Properties=species:S:1:pos:R:3 gdb_62760=T pbc="F F F"
C       -0.04850000       1.55000000       0.04970000
C        0.01920000       0.03910000       0.02790000
C       -1.21010000      -0.64400000      -0.54220000
C        1.33220000      -0.69390000      -0.24300000
N        2.58560000      -0.02690000      -0.05110000
C        2.71320000       0.47530000       1.24090000
O        3.54900000       1.25480000       1.63940000
N        1.68200000      -0.09670000       1.98080000
C        0.71680000      -0.74150000       1.14090000
H        0.85030000       2.01130000       0.46350000
H       -0.18560000       1.94300000      -0.96430000
H       -0.90080000       1.88770000       0.65070000
H       -1.38550000      -0.33550000      -1.57930000
H       -1.10740000      -1.73430000      -0.53400000
H       -2.10480000      -0.39100000       0.03820000
H        1.33980000      -1.55730000      -0.90040000
H        3.05980000       0.46820000      -0.78840000
H        1.44010000       0.34330000       2.85330000
H        0.25620000      -1.64100000       1.53620000
