10
Properties=species:S:1:pos:R:3 gdb_21847=T pbc="F F F"
O        0.00950000      -0.01040000       0.08130000
C       -0.01340000       1.16330000      -0.07640000
O        1.10810000       1.93270000       0.19570000
C        0.98860000       3.26970000       0.15270000
N       -0.12420000       3.91280000       0.40660000
O        0.26050000       5.24960000       0.24490000
C        1.55690000       5.23080000      -0.06580000
N        2.07560000       4.04660000      -0.14350000
H       -0.85180000       1.76920000      -0.44860000
H        2.04090000       6.18360000      -0.22190000
