16
Properties=species:S:1:pos:R:3 gdb_124730=T pbc="F F F"
C       -0.16020000       1.44720000       0.05410000
C       -0.03060000      -0.09030000       0.02320000
N        0.64450000      -0.63780000      -1.15870000
C        0.68510000      -0.57300000       1.24940000
N        0.19170000      -1.14920000       2.30510000
C        1.31410000      -1.31240000       3.08100000
O        1.26930000      -1.88180000       4.28400000
N        2.43570000      -0.87690000       2.56740000
O        2.00200000      -0.36970000       1.32210000
H        0.82810000       1.91730000       0.04410000
H       -0.71460000       1.78670000      -0.82620000
H       -0.69510000       1.78690000       0.94690000
H       -1.03050000      -0.53210000       0.07200000
H        0.16210000      -0.32070000      -1.99450000
H        1.59070000      -0.27010000      -1.21330000
H        0.35070000      -2.13050000       4.44470000
