14
Properties=species:S:1:pos:R:3 gdb_22029=T pbc="F F F"
O       -0.06120000       1.35140000       0.25010000
N        0.06610000      -0.03330000       0.15370000
C       -1.08420000      -0.61490000       0.02760000
C       -2.35430000       0.08150000      -0.14900000
C       -3.58920000      -0.44510000      -0.03720000
N       -4.02480000      -1.66690000       0.50020000
N       -3.36970000      -2.74160000       0.49830000
C       -2.08190000      -2.92060000      -0.02280000
C       -1.04980000      -2.05750000      -0.13490000
H        0.85670000       1.64150000       0.28730000
H       -2.27700000       1.13130000      -0.41340000
H       -4.43990000       0.20140000      -0.23520000
H       -1.88320000      -3.97570000      -0.18590000
H       -0.06880000      -2.47150000      -0.35450000
