16
Properties=species:S:1:pos:R:3 gdb_18614=T pbc="F F F"
O       -0.06770000       1.45170000      -0.02010000
C       -0.07770000       0.04520000      -0.00260000
C       -0.43610000      -0.75330000       1.23600000
C       -1.13970000       0.02930000       2.30130000
C       -2.30540000       0.51480000       1.86740000
C       -2.61730000       0.08200000       0.43690000
O       -2.91970000       1.15910000      -0.43590000
C       -1.37230000      -0.72360000       0.03140000
H       -0.26170000       1.75540000       0.87660000
H        0.71690000      -0.35260000      -0.62600000
H        0.16430000      -1.61690000       1.49800000
H       -0.70690000       0.19920000       3.28140000
H       -2.97610000       1.16490000       2.41750000
H       -3.51010000      -0.55540000       0.42420000
H       -2.08360000       1.62370000      -0.58200000
H       -1.49190000      -1.57650000      -0.62530000
