19
Properties=species:S:1:pos:R:3 gdb_98017=T pbc="F F F"
C       -0.20990000       1.59740000      -0.13320000
C        0.01910000       0.07260000      -0.08520000
C       -1.28560000      -0.69350000       0.21310000
C        0.64070000      -0.40350000      -1.31770000
C        1.13570000      -0.81020000      -2.34230000
C        1.75530000      -1.25400000      -3.56100000
O        1.48880000      -2.30850000      -4.10890000
C        2.79990000      -0.33120000      -4.17820000
O        3.31850000      -0.87800000      -5.35120000
H        0.72550000       2.13260000      -0.31470000
H       -0.91260000       1.85700000      -0.93050000
H       -0.62790000       1.94100000       0.81760000
H        0.72910000      -0.13600000       0.72790000
H       -2.02610000      -0.51370000      -0.57180000
H       -1.10640000      -1.76970000       0.27130000
H       -1.70580000      -0.35800000       1.16600000
H        2.32510000       0.64720000      -4.35950000
H        3.58740000      -0.15750000      -3.42630000
H        2.85730000      -1.72630000      -5.45800000
