20
Properties=species:S:1:pos:R:3 gdb_83763=T pbc="F F F"
C       -0.30310000       1.57630000      -0.01050000
C        0.02690000       0.09220000       0.03810000
N        1.01880000      -0.51250000      -0.95130000
C        2.11090000       0.42850000      -1.27610000
C        2.87470000       0.72990000       0.05100000
C        2.33620000      -0.36180000       0.96700000
C        1.56200000      -1.36410000       0.14820000
C        0.82700000      -0.54340000       1.16960000
O        0.29930000      -0.99280000       2.36740000
H        0.56060000       2.22020000       0.16830000
H       -0.73840000       1.84470000      -0.97930000
H       -1.05200000       1.80160000       0.75670000
H       -0.90530000      -0.47340000      -0.08040000
H        2.77460000      -0.06720000      -1.99190000
H        1.71120000       1.32140000      -1.76280000
H        3.95920000       0.63330000      -0.07060000
H        2.68430000       1.74040000       0.42570000
H        2.93010000      -0.73240000       1.79610000
H        1.73990000      -2.42590000       0.04000000
H        0.40170000      -0.29660000       3.02510000
