18
Properties=species:S:1:pos:R:3 gdb_76597=T pbc="F F F"
C        0.10490000       1.38620000       0.35790000
C       -0.05340000      -0.06250000      -0.03860000
C        0.70230000      -0.70420000      -1.17900000
C        1.70580000       0.03540000      -2.03260000
N        0.97800000      -1.05770000       0.21060000
C        2.14480000      -0.87810000       0.91400000
N        2.20740000      -0.24810000       2.02570000
C        3.28870000      -1.57090000       0.33280000
N        4.22590000      -2.09140000      -0.10170000
H        1.09300000       1.78440000       0.12450000
H       -0.64390000       1.98720000      -0.16860000
H       -0.04810000       1.50310000       1.43330000
H       -1.05230000      -0.45680000       0.14530000
H        0.18050000      -1.49920000      -1.71030000
H        2.21680000       0.83040000      -1.48500000
H        2.46710000      -0.65080000      -2.41480000
H        1.19770000       0.48450000      -2.89210000
H        3.13720000      -0.32480000       2.43410000
