19
Properties=species:S:1:pos:R:3 gdb_70835=T pbc="F F F"
C        0.01380000       1.50010000      -0.00090000
C        0.03010000      -0.00200000      -0.04150000
C        0.60200000      -0.93740000      -1.14380000
C        0.03390000      -1.89140000      -0.08680000
O        0.06610000      -3.26900000      -0.16500000
C        0.60650000      -0.96930000       1.05490000
C       -0.40920000      -1.00300000       2.18710000
O       -1.64540000      -1.00190000       1.44430000
C       -1.19290000      -0.95880000       0.09870000
H        1.02930000       1.91080000       0.00610000
H       -0.50740000       1.91220000      -0.87170000
H       -0.50230000       1.85980000       0.89570000
H        0.09870000      -0.92070000      -2.11550000
H        1.68840000      -0.93420000      -1.26160000
H       -0.57920000      -3.62030000       0.45910000
H        1.67330000      -0.97100000       1.27940000
H       -0.34170000      -1.90700000       2.80710000
H       -0.36860000      -0.12770000       2.84760000
H       -2.03160000      -0.94220000      -0.59720000
