18
Properties=species:S:1:pos:R:3 gdb_107651=T pbc="F F F"
O        0.12360000       1.34120000       0.20720000
C        0.10190000      -0.05630000       0.00850000
C       -1.31810000      -0.57340000      -0.08140000
C       -2.06890000      -0.96330000       1.17680000
C       -1.65850000      -2.01680000       0.17840000
C       -2.67070000      -2.63660000      -0.75630000
O       -3.54840000      -1.67560000      -1.37480000
C       -3.05870000      -0.43950000      -1.61800000
N       -2.05880000       0.13200000      -1.09340000
H       -0.52050000       1.69600000      -0.42020000
H        0.64570000      -0.33800000      -0.90910000
H        0.62080000      -0.51720000       0.85620000
H       -1.53150000      -0.91660000       2.11780000
H       -3.11650000      -0.68740000       1.23810000
H       -0.85340000      -2.69130000       0.45880000
H       -2.14960000      -3.17550000      -1.55800000
H       -3.33290000      -3.34220000      -0.24560000
H       -3.67550000       0.07390000      -2.35260000
