22
Properties=species:S:1:pos:R:3 gdb_11952=T pbc="F F F"
C        0.05640000       1.50230000      -0.24990000
C        0.00870000       0.01720000       0.13830000
C       -1.38920000      -0.53970000       0.16260000
C       -2.10720000      -1.01180000      -1.07850000
C       -1.90310000      -1.98610000       0.05450000
C       -1.16520000      -3.28480000      -0.10500000
C       -2.95530000      -1.70620000       1.13720000
C       -2.43720000      -0.23540000       1.24500000
H        1.08350000       1.88070000      -0.24720000
H       -0.36050000       1.65910000      -1.25010000
H       -0.52520000       2.11180000       0.45010000
H        0.62000000      -0.56280000      -0.56510000
H        0.47230000      -0.11380000       1.12580000
H       -3.10130000      -0.64190000      -1.32540000
H       -1.47080000      -1.17430000      -1.94440000
H       -0.32380000      -3.18480000      -0.79890000
H       -0.76800000      -3.64160000       0.85270000
H       -1.82290000      -4.06920000      -0.50060000
H       -4.00120000      -1.84380000       0.84050000
H       -2.78030000      -2.27370000       2.05540000
H       -1.99150000      -0.02510000       2.22140000
H       -3.15510000       0.55940000       1.01460000
