16
Properties=species:S:1:pos:R:3 gdb_34995=T pbc="F F F"
N       -0.20080000      -1.19810000      -0.22550000
C       -0.00510000      -0.06480000      -0.10240000
C        0.07060000       1.36740000       0.01800000
C        0.47030000       2.09750000       1.29010000
C        1.27370000       1.38540000       2.38460000
C        2.63450000       1.07810000       1.77160000
O        2.59250000       0.16500000       0.67010000
C        2.66270000       1.56170000       0.37900000
C        1.33820000       2.21320000       0.05370000
H       -0.74670000       1.84590000      -0.51560000
H       -0.18970000       2.90260000       1.59230000
H        1.40020000       2.06120000       3.23680000
H        0.78510000       0.47730000       2.75220000
H        3.51650000       0.99780000       2.40230000
H        3.56160000       1.89280000      -0.13260000
H        1.34960000       3.10250000      -0.56490000
