21
Properties=species:S:1:pos:R:3 gdb_65562=T pbc="F F F"
C       -0.20780000       1.58670000       0.14960000
C       -0.01620000       0.07940000       0.01550000
C       -1.34600000      -0.68630000      -0.07770000
C       -2.18890000      -0.32280000      -1.27680000
C       -3.65450000      -0.40030000      -1.25590000
O       -2.98930000       0.86150000      -1.18010000
C        1.03570000      -0.39290000      -1.02630000
O        1.76660000      -1.12880000      -0.02700000
C        0.96050000      -0.57230000       1.03000000
H        0.75840000       2.09480000       0.23370000
H       -0.74190000       2.00410000      -0.70820000
H       -0.79440000       1.82760000       1.04310000
H       -1.13160000      -1.76270000      -0.11810000
H       -1.93570000      -0.50890000       0.83040000
H       -1.69960000      -0.43630000      -2.24650000
H       -4.20320000      -0.58670000      -2.17800000
H       -4.16000000      -0.71680000      -0.34410000
H        0.68040000      -1.04410000      -1.83500000
H        1.63720000       0.41630000      -1.46260000
H        1.52420000       0.14580000       1.64130000
H        0.54460000      -1.34880000       1.68430000
