13
Properties=species:S:1:pos:R:3 gdb_29684=T pbc="F F F"
C       -0.01270000       1.46070000      -0.00230000
N        0.00480000      -0.00720000       0.00770000
C        0.11240000      -0.62240000      -1.21620000
O        0.19170000      -0.06870000      -2.27130000
O        0.12560000      -2.01300000      -1.16930000
C        0.03660000      -2.63190000       0.02520000
N       -0.06320000      -2.09620000       1.17050000
C       -0.08720000      -0.69360000       1.24470000
O       -0.17970000      -0.09850000       2.28510000
H        0.90870000       1.83940000      -0.44890000
H       -0.85900000       1.81740000      -0.59260000
H       -0.10080000       1.78770000       1.03060000
H        0.06060000      -3.71090000      -0.10020000
