17
Properties=species:S:1:pos:R:3 gdb_77046=T pbc="F F F"
C       -0.10530000       1.62230000       0.19590000
C       -0.00610000       0.11190000       0.03100000
C        0.67060000      -0.51580000      -1.24000000
C        1.24330000       0.44220000      -2.29760000
C        2.05560000      -0.27570000      -3.27770000
N        2.69590000      -0.87480000      -4.03040000
N        1.66420000      -1.09910000      -0.34030000
C        1.11710000      -0.60740000       0.82460000
O        1.41770000      -0.71830000       1.98070000
H        0.85610000       2.12050000       0.04000000
H       -0.83560000       2.05670000      -0.49450000
H       -0.42780000       1.85360000       1.21490000
H       -0.97520000      -0.35580000       0.22800000
H        0.04480000      -1.26450000      -1.73800000
H        0.42610000       0.95310000      -2.81940000
H        1.86320000       1.20830000      -1.82260000
H        2.39030000      -1.78180000      -0.50540000
