19
Properties=species:S:1:pos:R:3 gdb_87153=T pbc="F F F"
O       -0.42520000       1.50640000      -0.16450000
C       -0.10760000       0.15130000      -0.23980000
C        0.11260000      -0.67630000       1.00740000
C       -1.14610000      -0.86300000       0.19480000
O       -2.28590000      -0.29050000       0.79570000
C       -1.38420000      -2.15190000      -0.55160000
O       -0.26650000      -2.59120000      -1.27930000
C       -2.17970000      -3.24880000       0.08400000
C       -2.74870000      -2.49510000      -1.10390000
H       -1.15720000       1.57770000       0.46250000
H        0.51900000      -0.05240000      -1.10110000
H        0.85220000      -1.46800000       0.97110000
H       -0.00040000      -0.17760000       1.96440000
H       -2.87500000      -0.01120000       0.08380000
H       -0.20890000      -2.06060000      -2.08180000
H       -1.83030000      -4.26080000      -0.08210000
H       -2.61430000      -3.05370000       1.05740000
H       -3.58900000      -1.83210000      -0.92890000
H       -2.76640000      -3.00550000      -2.06050000
