15
Properties=species:S:1:pos:R:3 gdb_11211=T pbc="F F F"
O       -0.14140000       0.00490000      -0.11290000
C       -0.04930000       1.20100000      -0.01930000
C        1.26450000       1.95100000       0.03000000
C        1.43070000       2.82060000       1.31200000
C        2.94310000       2.76620000       1.58130000
C        3.39380000       1.43950000       0.95390000
O        4.41450000       0.83090000       1.17310000
N        2.40950000       1.07920000       0.06790000
H       -0.94810000       1.85690000       0.01860000
H        1.27210000       2.60710000      -0.85980000
H        1.03820000       3.82960000       1.17600000
H        0.88620000       2.35590000       2.14060000
H        3.47690000       3.58330000       1.08270000
H        3.20910000       2.79410000       2.63870000
H        2.41370000       0.18490000      -0.39690000
