21
Properties=species:S:1:pos:R:3 gdb_92337=T pbc="F F F"
C       -0.05080000       1.57480000      -0.22690000
C        0.20570000       0.07910000      -0.13900000
O        1.19730000      -0.32340000      -1.10420000
C        1.46570000      -1.69940000      -0.81490000
C        1.44920000      -1.83450000       0.72130000
C        2.74600000      -1.39620000       1.44680000
C        2.15560000       0.02800000       1.65830000
O        2.76290000       1.04850000       0.89940000
C        0.75430000      -0.50150000       1.16460000
H       -0.33890000       1.84580000      -1.24680000
H       -0.87740000       1.84090000       0.43960000
H        0.82710000       2.15030000       0.06660000
H       -0.73300000      -0.45380000      -0.37430000
H        0.68180000      -2.32860000      -1.26330000
H        2.42380000      -1.95750000      -1.27470000
H        1.01000000      -2.78050000       1.04180000
H        2.91750000      -1.93600000       2.38190000
H        3.66840000      -1.41830000       0.85790000
H        2.16270000       0.38100000       2.69220000
H        2.66550000       0.79950000      -0.03120000
H        0.00440000      -0.57830000       1.95400000
