18
Properties=species:S:1:pos:R:3 gdb_69894=T pbc="F F F"
C       -0.07200000       1.54010000       0.12830000
C       -0.07230000       0.04150000       0.03830000
C       -0.84880000      -0.86820000       0.95240000
C        0.65250000      -0.98720000       0.87110000
N        1.25420000      -1.68550000      -0.33240000
C        0.20770000      -2.19370000      -1.20230000
C        0.44290000      -0.71830000      -1.21310000
C        1.07840000      -0.08600000      -2.39150000
O        1.67430000      -0.69820000      -3.24680000
H        0.88570000       1.96630000      -0.19140000
H       -0.85830000       1.98140000      -0.49610000
H       -0.25010000       1.86110000       1.15900000
H       -1.17320000      -0.38170000       1.86810000
H       -1.54490000      -1.62310000       0.60560000
H        1.30410000      -0.86700000       1.72700000
H        0.61510000      -2.70690000      -2.06820000
H       -0.70650000      -2.61450000      -0.80120000
H        0.95660000       1.01680000      -2.45790000
