19
Properties=species:S:1:pos:R:3 gdb_120017=T pbc="F F F"
C        0.37540000       1.49620000      -0.27070000
C        0.33790000      -0.00760000      -0.06940000
O        0.53660000      -0.63270000      -1.33750000
C        0.52220000      -2.04240000      -1.30260000
C        0.84800000      -2.56330000      -2.74500000
O        0.63920000      -1.65090000      -3.78030000
C        2.31970000      -2.87320000      -2.30980000
C        1.89680000      -2.61780000      -0.85770000
O        2.40500000      -2.79180000       0.21280000
H        1.34480000       1.80880000      -0.66910000
H       -0.40430000       1.81290000      -0.96930000
H        0.21380000       2.00630000       0.68330000
H        1.11720000      -0.33400000       0.63140000
H       -0.63260000      -0.32710000       0.34110000
H       -0.37440000      -2.42710000      -0.79680000
H        0.29640000      -3.47910000      -2.97540000
H        0.65140000      -0.77420000      -3.37270000
H        2.73310000      -3.85930000      -2.53350000
H        3.01720000      -2.10750000      -2.66740000
