20
Properties=species:S:1:pos:R:3 gdb_87456=T pbc="F F F"
C       -0.02710000       1.57350000      -0.13420000
C       -0.02710000       0.07110000       0.01320000
N        1.29770000      -0.60810000      -0.11890000
C        0.60210000      -0.63610000       1.13910000
C        1.13990000      -0.32400000       2.54090000
C       -0.22690000      -0.75200000       3.12410000
C        0.20270000      -1.80570000       2.06370000
C       -0.36980000      -3.14870000       1.73960000
O        1.58160000      -1.73860000       2.63570000
H        0.85960000       2.00400000       0.33840000
H       -0.02020000       1.86150000      -1.19080000
H       -0.91720000       2.01260000       0.32960000
H       -0.87610000      -0.43480000      -0.44820000
H        1.21570000      -1.49370000      -0.61330000
H        1.83510000       0.44370000       2.87590000
H       -0.18300000      -1.10980000       4.15350000
H       -1.10270000      -0.13200000       2.91420000
H       -1.39230000      -3.04550000       1.36250000
H        0.23400000      -3.65270000       0.97790000
H       -0.39230000      -3.78090000       2.63190000
