21
Properties=species:S:1:pos:R:3 gdb_101551=T pbc="F F F"
C       -0.03560000       1.55660000       0.08840000
C       -0.04410000       0.02980000      -0.02240000
C        0.71420000      -0.51480000      -1.24000000
C        0.84310000      -2.04420000      -1.21190000
N        0.06820000      -0.05360000      -2.46830000
C        0.72470000       0.01850000      -3.66390000
N        1.98090000      -0.18550000      -3.79770000
C       -0.16830000       0.40670000      -4.82450000
O        0.24410000       0.54530000      -5.94500000
H        0.98700000       1.93610000       0.18620000
H       -0.47460000       2.02220000      -0.79890000
H       -0.60230000       1.89150000       0.96220000
H        0.40270000      -0.41020000       0.87620000
H       -1.07960000      -0.34140000      -0.05200000
H        1.72210000      -0.08620000      -1.26200000
H       -0.14400000      -2.52080000      -1.19700000
H        1.38830000      -2.39320000      -2.09170000
H        1.38870000      -2.36710000      -0.31940000
H       -0.93960000      -0.09650000      -2.49690000
H        2.22800000      -0.01440000      -4.77420000
H       -1.24520000       0.55990000      -4.58050000
