20
Properties=species:S:1:pos:R:3 gdb_20131=T pbc="F F F"
C       -0.20990000       1.38680000      -0.21760000
C        1.23170000       1.21890000       0.19570000
C        0.34810000       0.00640000       0.03120000
C       -0.09200000      -0.77930000       1.23860000
C       -1.35020000      -1.71830000       1.13880000
C       -0.49670000      -2.88800000       1.64370000
C        0.65030000      -3.12310000       0.70370000
C        0.74260000      -1.99120000       1.69110000
H       -0.90260000       1.79100000       0.51380000
H       -0.42220000       1.68410000      -1.23860000
H        2.00400000       1.40070000      -0.54360000
H        1.50750000       1.51150000       1.20390000
H        0.53290000      -0.59170000      -0.85740000
H       -0.22750000      -0.08830000       2.07810000
H       -2.14760000      -1.42070000       1.82330000
H       -1.78080000      -1.84530000       0.13930000
H       -0.81850000      -3.64010000       2.35360000
H        1.27630000      -3.97960000       0.93370000
H        0.53680000      -2.93610000      -0.36200000
H        1.53330000      -1.95790000       2.43170000
