16
Properties=species:S:1:pos:R:3 gdb_27076=T pbc="F F F"
N       -0.05360000       1.38070000       0.20380000
C       -0.06180000      -0.01740000       0.05060000
C       -1.07220000      -0.92010000      -0.20160000
O       -2.36860000      -0.52960000      -0.46620000
C       -3.35690000      -1.14590000       0.22700000
N       -4.56080000      -0.89770000      -0.05370000
C       -0.52270000      -2.23310000      -0.20460000
C        0.82250000      -2.09250000       0.04570000
N        1.08810000      -0.75400000       0.19920000
H        0.22880000       1.85690000      -0.64950000
H       -0.98920000       1.70450000       0.42450000
H       -2.97580000      -1.82380000       1.00020000
H       -5.17380000      -1.42540000       0.56430000
H       -1.04720000      -3.15540000      -0.39840000
H        1.60610000      -2.82810000       0.11740000
H        1.97260000      -0.34990000       0.45370000
