20
Properties=species:S:1:pos:R:3 gdb_66434=T pbc="F F F"
C        0.07350000       1.53330000       0.01110000
C       -0.00130000       0.04230000       0.00600000
C        0.75950000      -1.00360000      -0.76680000
C        0.87410000      -0.98920000       0.73660000
C       -0.33220000      -1.96630000       0.77370000
C       -0.64180000      -3.15530000       1.61760000
N       -0.40470000      -1.98750000      -0.73880000
C       -1.18880000      -0.97060000       0.06400000
C       -2.66560000      -0.80580000      -0.06290000
H        1.11570000       1.86500000      -0.05550000
H       -0.46570000       1.96900000      -0.83830000
H       -0.34920000       1.95750000       0.92960000
H        1.49690000      -0.93860000      -1.55830000
H        1.71960000      -0.81980000       1.38980000
H       -0.79370000      -2.87020000       2.66490000
H       -1.55180000      -3.64680000       1.25980000
H        0.17270000      -3.88750000       1.57830000
H       -3.15400000      -1.78520000      -0.07340000
H       -3.07650000      -0.22660000       0.77190000
H       -2.92740000      -0.29280000      -0.99530000
