21
Properties=species:S:1:pos:R:3 gdb_107050=T pbc="F F F"
C        0.06020000       1.53920000      -0.03370000
C        0.07270000       0.01310000       0.06170000
C        0.80530000      -0.66640000      -1.12120000
O        1.34440000      -1.89290000      -0.63350000
C        1.54210000      -1.77120000       0.76200000
C        1.62170000      -3.12730000       1.40240000
O        2.72500000      -3.87780000       0.92360000
C        2.31880000      -0.57390000       1.24480000
C        0.79510000      -0.57460000       1.26990000
H        1.07880000       1.94120000      -0.01550000
H       -0.41830000       1.87500000      -0.96030000
H       -0.48930000       1.98270000       0.80220000
H       -0.96250000      -0.35020000       0.09190000
H        0.14680000      -0.89750000      -1.96330000
H        1.61090000      -0.01650000      -1.49430000
H        1.75540000      -3.02180000       2.48350000
H        0.67350000      -3.66080000       1.22770000
H        2.66490000      -3.86060000      -0.03830000
H        2.82660000      -0.66850000       2.19840000
H        2.84190000       0.04600000       0.52430000
H        0.28460000      -0.58140000       2.22680000
