16
Properties=species:S:1:pos:R:3 gdb_75685=T pbc="F F F"
C        0.24680000       1.41300000      -0.13540000
N       -0.22330000       0.04980000       0.02770000
C       -0.13660000      -0.97460000      -0.92150000
O       -0.18300000      -0.95420000      -2.11860000
C        0.08810000      -2.03370000       0.15830000
C        1.30060000      -1.63450000       0.97190000
C        0.02830000      -0.85220000       1.15190000
C       -0.78980000      -0.84520000       2.38020000
O       -0.55700000      -1.52940000       3.34770000
H        1.29410000       1.52800000       0.17460000
H        0.16330000       1.66440000      -1.19530000
H       -0.36910000       2.11080000       0.43890000
H       -0.39880000      -2.99310000       0.26230000
H        1.54980000      -2.30620000       1.78740000
H        2.14360000      -1.15250000       0.48670000
H       -1.66650000      -0.16350000       2.33490000
