16
Properties=species:S:1:pos:R:3 gdb_74839=T pbc="F F F"
C        0.01530000       1.51820000      -0.02250000
C       -0.05440000       0.02050000      -0.00070000
C       -1.18420000      -0.68770000       0.16180000
C       -1.15460000      -2.15620000       0.07050000
O       -0.68710000      -2.71230000      -1.17690000
C        0.16530000      -2.83020000      -0.03880000
C        1.40510000      -1.98480000      -0.05350000
O        2.52610000      -2.44250000       0.03300000
N        1.17560000      -0.62350000      -0.15280000
H        0.69640000       1.89380000       0.75090000
H        0.38700000       1.87870000      -0.98900000
H       -0.97080000       1.95240000       0.14750000
H       -2.12790000      -0.17840000       0.30530000
H       -1.97710000      -2.71530000       0.51120000
H        0.32680000      -3.84070000       0.32910000
H        2.01770000      -0.06540000      -0.16840000
