12
Properties=species:S:1:pos:R:3 gdb_131987=T pbc="F F F"
N       -0.02590000       1.36780000       0.14930000
C        0.04380000      -0.00080000       0.04090000
N       -1.05450000      -0.73890000       0.00570000
O       -0.62270000      -2.06840000      -0.01660000
C        0.70440000      -2.05930000      -0.01080000
C        1.22130000      -0.80820000       0.02540000
N        1.38110000      -3.33780000      -0.03780000
O        2.60560000      -3.28820000      -0.04170000
O        0.69060000      -4.34290000      -0.05430000
H        0.71830000       1.87820000      -0.30120000
H       -0.94080000       1.74960000      -0.04710000
H        2.25750000      -0.52060000       0.04880000
