18
Properties=species:S:1:pos:R:3 gdb_37648=T pbc="F F F"
C       -0.06880000       1.56690000       0.04700000
C        1.48950000       1.52640000      -0.00240000
C        2.06200000       1.27690000       1.38390000
C        1.35050000       0.24670000       2.17700000
C        0.58580000      -0.68380000       1.21730000
C       -0.04060000       0.02750000      -0.03760000
C        1.41850000       0.08480000      -0.61620000
C        1.94980000      -0.84890000       0.49840000
N        2.70160000      -0.05150000       1.55270000
H       -0.53080000       2.04090000       0.91890000
H       -0.49330000       1.99720000      -0.86460000
H        2.01550000       2.30820000      -0.55150000
H        2.56410000       2.08130000       1.91160000
H        1.22040000       0.30030000       3.25300000
H        0.05390000      -1.51730000       1.67240000
H       -0.85930000      -0.50980000      -0.51760000
H        1.67700000      -0.05180000      -1.66550000
H        2.40550000      -1.80670000       0.25400000
