16
Properties=species:S:1:pos:R:3 gdb_28504=T pbc="F F F"
C       -0.03020000       1.50420000       0.04340000
C        0.01240000      -0.00320000       0.02360000
N       -0.06050000      -0.61800000      -1.16000000
C       -0.02630000      -1.94550000      -1.22080000
C        0.08460000      -2.74770000      -0.08160000
O        0.11120000      -4.09730000      -0.24960000
C        0.16190000      -2.12910000       1.16120000
C        0.12530000      -0.73970000       1.21350000
O        0.20230000      -0.15190000       2.43950000
H        0.88020000       1.94080000       0.47710000
H       -0.12090000       1.86780000      -0.98080000
H       -0.88590000       1.88910000       0.61530000
H       -0.08790000      -2.41150000      -2.19990000
H        0.18930000      -4.52480000       0.60960000
H        0.24930000      -2.69580000       2.08340000
H        0.16630000       0.80410000       2.33270000
