20
Properties=species:S:1:pos:R:3 gdb_37475=T pbc="F F F"
C        0.13160000       1.42610000      -0.07650000
C        1.36410000       0.61930000      -0.09340000
C        1.68360000       0.11810000       1.31050000
O        1.89910000       1.14990000       2.25230000
C        1.27390000       0.90330000       3.50470000
C       -0.24720000       0.88140000       3.35820000
C       -0.69620000      -0.27130000       2.43520000
C        0.28140000      -0.56220000       1.28820000
N       -0.01320000      -0.04010000      -0.09820000
H       -0.12450000       1.99600000       0.80990000
H       -0.17620000       1.87990000      -1.01350000
H        2.02640000       0.56290000      -0.95010000
H        2.51050000      -0.60300000       1.34850000
H        1.63440000      -0.04350000       3.94260000
H        1.59560000       1.71540000       4.16260000
H       -0.71380000       0.77240000       4.34380000
H       -0.56420000       1.85400000       2.96600000
H       -0.78040000      -1.17990000       3.04250000
H       -1.69390000      -0.08430000       2.02270000
H        0.39750000      -1.64220000       1.17120000
