14
Properties=species:S:1:pos:R:3 gdb_1433=T pbc="F F F"
C        0.03110000       1.44300000      -0.06060000
N       -0.08320000      -0.00050000      -0.09460000
C       -1.24670000      -0.65320000       0.20290000
O       -2.28050000      -0.09030000       0.51980000
C       -1.13590000      -2.10090000       0.10520000
C       -1.09640000      -3.30380000       0.03880000
C       -1.06110000      -4.75490000      -0.03780000
H        0.78230000       1.76680000       0.66870000
H        0.30090000       1.84540000      -1.04360000
H       -0.94210000       1.83880000       0.23120000
H        0.71610000      -0.55850000      -0.34520000
H       -2.03620000      -5.18680000       0.21040000
H       -0.79110000      -5.08920000      -1.04540000
H       -0.32280000      -5.16760000       0.65840000
