15
Properties=species:S:1:pos:R:3 gdb_45720=T pbc="F F F"
O        0.01400000      -0.07270000       0.01630000
C       -0.02110000       1.13710000       0.03970000
C       -1.31510000       1.94380000       0.07510000
C       -1.18080000       3.28560000       0.83590000
C        0.07810000       4.01210000       0.40370000
C        1.13860000       3.30000000       0.02200000
N        1.12360000       1.90560000      -0.03770000
C       -2.38030000       4.10530000       0.64590000
N       -3.32620000       4.75050000       0.49090000
H       -1.58710000       2.15080000      -0.96730000
H       -2.09590000       1.31280000       0.50050000
H       -1.11520000       3.07100000       1.91440000
H        0.11530000       5.09170000       0.44050000
H        2.08000000       3.75900000      -0.25490000
H        1.98350000       1.39420000      -0.16830000
