20
Properties=species:S:1:pos:R:3 gdb_11059=T pbc="F F F"
C       -0.03940000       1.48820000      -0.00360000
C        0.00970000      -0.02930000       0.00920000
C        0.73750000      -0.68270000      -1.19850000
C        0.96730000      -2.15420000      -0.72810000
C        0.35080000      -2.13000000       0.68400000
C        0.72020000      -0.73160000       1.19230000
O       -1.07720000      -2.05780000       0.54680000
C       -1.36720000      -0.71690000       0.11880000
H        0.96860000       1.91500000      -0.04110000
H       -0.58680000       1.86090000      -0.87720000
H       -0.53710000       1.87880000       0.89080000
H        0.14130000      -0.61680000      -2.11380000
H        1.68590000      -0.17020000      -1.39040000
H        0.45710000      -2.88970000      -1.35380000
H        2.03030000      -2.41390000      -0.69870000
H        0.58610000      -2.98590000       1.31790000
H        1.79730000      -0.54260000       1.22180000
H        0.27930000      -0.50370000       2.16680000
H       -2.01240000      -0.22710000       0.86210000
H       -1.90270000      -0.73650000      -0.83970000
