12
Properties=species:S:1:pos:R:3 gdb_133507=T pbc="F F F"
F        0.13150000       0.02450000       0.05450000
C       -0.00800000       1.35690000       0.00510000
F        1.21680000       1.88700000      -0.11160000
F       -0.68340000       1.65040000      -1.11420000
C       -0.69620000       1.86070000       1.18980000
C       -1.26320000       2.27500000       2.16270000
C       -1.95780000       2.76790000       3.35240000
C       -1.97610000       4.22730000       3.44960000
C       -1.99720000       5.42360000       3.53920000
H       -2.98660000       2.38290000       3.34950000
H       -1.48110000       2.34200000       4.24570000
H       -2.01420000       6.48290000       3.61510000
