21
Properties=species:S:1:pos:R:3 gdb_106147=T pbc="F F F"
C       -0.32860000       1.45570000      -0.00160000
C        0.09150000      -0.01990000       0.05340000
C        0.80920000      -0.47960000      -1.17630000
C        0.41710000      -0.73900000      -2.59520000
O        1.41810000       0.09050000      -3.18370000
C        2.13580000      -0.03900000      -1.92390000
C        2.60080000      -1.51530000      -1.91700000
C        1.11460000      -1.85570000      -1.78610000
C        0.48310000      -3.18370000      -1.49470000
H        0.54240000       2.10910000      -0.11540000
H       -0.99470000       1.64170000      -0.84970000
H       -0.85090000       1.74950000       0.91410000
H        0.72340000      -0.18980000       0.93590000
H       -0.79560000      -0.65100000       0.19580000
H       -0.54250000      -0.84140000      -3.08720000
H        2.79580000       0.79990000      -1.71050000
H        3.15330000      -1.85330000      -2.80060000
H        3.14780000      -1.76690000      -1.00340000
H        0.87770000      -3.62640000      -0.57270000
H       -0.60260000      -3.09210000      -1.37660000
H        0.66530000      -3.89450000      -2.30930000
