16
Properties=species:S:1:pos:R:3 gdb_26992=T pbc="F F F"
C       -0.30160000       1.53630000       0.29260000
C       -0.03770000       0.08570000       0.06730000
C        0.14370000      -0.60410000      -1.08870000
C        0.14600000      -0.24920000      -2.54080000
C        1.45060000      -0.40670000      -3.18520000
C        2.52110000      -0.53840000      -3.71310000
O        0.36030000      -1.92150000      -0.76400000
C        0.29700000      -1.94810000       0.58410000
N        0.06450000      -0.80650000       1.13800000
H        0.49080000       1.98390000       0.90150000
H       -0.35710000       2.08660000      -0.65010000
H       -1.24400000       1.68120000       0.83090000
H       -0.59620000      -0.86100000      -3.07130000
H       -0.19010000       0.78920000      -2.63730000
H        3.46890000      -0.65620000      -4.17700000
H        0.44320000      -2.90650000       1.05740000
