17
Properties=species:S:1:pos:R:3 gdb_66062=T pbc="F F F"
C       -0.10100000       1.71100000      -0.07880000
C        0.02750000       0.20270000      -0.00100000
O        1.18260000      -0.29700000      -0.72930000
C        1.69190000      -0.97160000       0.44270000
C        0.51860000      -0.46090000       1.32340000
C        0.85860000       0.39840000       2.43580000
C        1.15640000       1.11070000       3.35760000
C       -1.19270000      -0.48870000      -0.59960000
O       -1.96540000      -1.18120000       0.00900000
H        0.81030000       2.18520000       0.29190000
H       -0.26100000       2.02050000      -1.11670000
H       -0.94520000       2.05750000       0.52580000
H        1.73230000      -2.05760000       0.30720000
H        2.67830000      -0.59510000       0.72780000
H       -0.17090000      -1.24740000       1.63960000
H        1.41210000       1.73440000       4.17830000
H       -1.28930000      -0.31950000      -1.69530000
