16
Properties=species:S:1:pos:R:3 gdb_35934=T pbc="F F F"
C       -0.24910000      -1.28840000      -0.06520000
C       -0.12400000      -0.09560000       0.00050000
C        0.00550000       1.37290000       0.02440000
O       -0.59710000       1.96790000       1.12490000
C       -0.19050000       1.47240000       2.39920000
C        1.18360000       1.99090000       2.80600000
N        2.32350000       1.55930000       2.01760000
C        2.33910000       1.49590000       0.76180000
O        1.37330000       1.73940000      -0.18210000
H       -0.35650000      -2.34430000      -0.12050000
H       -0.50020000       1.79750000      -0.84660000
H       -0.94300000       1.83260000       3.10640000
H       -0.20810000       0.37570000       2.40040000
H        1.16030000       3.08980000       2.79320000
H        1.36190000       1.69290000       3.84610000
H        3.27460000       1.27170000       0.25000000
