18
Properties=species:S:1:pos:R:3 gdb_7774=T pbc="F F F"
O       -0.12450000       1.43310000       0.05160000
C       -0.00290000       0.01770000       0.01950000
C        0.72640000      -0.52930000       1.25570000
C        0.55150000      -2.02010000       1.39420000
C       -0.37180000      -2.71310000       0.72810000
C       -1.37070000      -2.09020000      -0.21690000
O       -2.66270000      -2.67510000      -0.06400000
C       -1.41070000      -0.56400000      -0.06220000
H        0.76160000       1.80770000       0.08860000
H        0.55580000      -0.29430000      -0.87960000
H        1.79570000      -0.28000000       1.20850000
H        0.33580000      -0.01310000       2.14460000
H        1.22970000      -2.53550000       2.07040000
H       -0.45410000      -3.79060000       0.84820000
H       -1.09320000      -2.34290000      -1.24960000
H       -2.93730000      -2.52490000       0.84770000
H       -1.94770000      -0.31060000       0.86210000
H       -1.95990000      -0.11000000      -0.89130000
