16
Properties=species:S:1:pos:R:3 gdb_110189=T pbc="F F F"
C       -0.00220000       1.48930000      -0.37090000
N        0.48030000       0.12620000      -0.13620000
C        0.69290000      -0.61060000      -1.35980000
C        1.01770000      -2.11860000      -1.19480000
O       -0.20070000      -2.47020000      -1.92100000
C       -0.58480000      -1.15310000      -2.02480000
O       -1.58950000      -0.72100000      -2.48340000
C        2.26170000      -2.61330000      -1.89540000
O        3.32150000      -2.72620000      -1.33840000
H        0.67160000       2.09700000      -0.99870000
H       -0.97600000       1.44550000      -0.86510000
H       -0.12820000       1.99170000       0.59120000
H        1.35060000       0.15470000       0.38590000
H        1.33950000      -0.10640000      -2.10170000
H        0.97690000      -2.45870000      -0.15820000
H        2.12160000      -2.83770000      -2.97570000
