22
Properties=species:S:1:pos:R:3 gdb_98285=T pbc="F F F"
C        0.16710000       1.07150000      -0.71640000
C       -0.17590000      -0.35760000      -0.30660000
C       -1.48930000      -0.48360000       0.44810000
O       -2.16220000       0.47930000       0.74000000
C       -1.95520000      -1.90300000       0.80570000
C       -2.43200000      -1.96710000       2.26420000
C       -3.07390000      -2.27980000      -0.15810000
C       -2.78450000      -2.94040000      -1.45550000
N       -3.44070000      -3.68730000      -0.36520000
H        1.12690000       1.10570000      -1.23920000
H       -0.60140000       1.48270000      -1.37610000
H        0.22410000       1.72350000       0.15870000
H       -0.22640000      -1.02660000      -1.17710000
H        0.60860000      -0.78910000       0.33260000
H       -1.12260000      -2.60220000       0.65080000
H       -3.20080000      -1.21000000       2.43630000
H       -2.85080000      -2.95150000       2.49160000
H       -1.60830000      -1.77560000       2.95910000
H       -3.93140000      -1.61240000      -0.10260000
H       -3.41080000      -2.74820000      -2.32180000
H       -1.74840000      -3.17260000      -1.69140000
H       -2.76090000      -4.29230000       0.09130000
