16
Properties=species:S:1:pos:R:3 gdb_18649=T pbc="F F F"
O       -0.04420000       1.46150000       0.15090000
C       -0.07340000       0.07080000      -0.03250000
C       -0.44950000      -0.77610000       1.14950000
O       -0.95550000       0.00380000       2.21050000
C       -2.36610000       0.19960000       1.99310000
C       -2.62600000       0.09670000       0.46800000
O       -2.83210000       1.33450000      -0.17860000
C       -1.39690000      -0.68100000      -0.02040000
H       -0.06750000       1.59380000       1.11170000
H        0.69130000      -0.27880000      -0.71940000
H        0.09290000      -1.66560000       1.45280000
H       -2.92030000      -0.57720000       2.53700000
H       -2.64390000       1.18170000       2.38320000
H       -3.53680000      -0.48350000       0.29150000
H       -1.96380000       1.75840000      -0.24340000
H       -1.52780000      -1.49670000      -0.72060000
