10
Properties=species:S:1:pos:R:3 gdb_21443=T pbc="F F F"
N       -0.03120000       1.28000000       0.32880000
C       -0.03570000       0.07300000      -0.02240000
O        1.11420000      -0.58040000      -0.42650000
N        1.14820000      -1.95380000      -0.83370000
N        0.09960000      -2.60130000      -0.82800000
N       -1.07530000      -2.04600000      -0.44770000
C       -1.29600000      -0.74010000      -0.02550000
O       -2.38790000      -0.35190000       0.29020000
H        0.90860000       1.67790000       0.27040000
H       -1.86430000      -2.67710000      -0.48560000
