16
Properties=species:S:1:pos:R:3 gdb_127413=T pbc="F F F"
C       -0.13200000       1.52370000      -0.01150000
N        0.20680000       0.11630000       0.02410000
C        0.75390000      -0.53290000      -1.18960000
C        1.30840000      -1.92120000      -0.72350000
C        1.48450000      -1.66860000       0.74280000
N        2.02480000      -2.19320000       1.79270000
O        1.71900000      -1.32330000       2.82090000
N        0.96290000      -0.21850000       2.36900000
C        0.82760000      -0.46240000       1.09950000
H        0.74360000       2.16230000      -0.20760000
H       -0.87510000       1.70410000      -0.79360000
H       -0.56290000       1.81220000       0.94940000
H       -0.02450000      -0.62740000      -1.95190000
H        1.56680000       0.07800000      -1.61200000
H        0.57500000      -2.71580000      -0.89610000
H        2.22600000      -2.19420000      -1.24760000
