17
Properties=species:S:1:pos:R:3 gdb_70830=T pbc="F F F"
C        0.03180000       1.43660000      -0.08980000
C        0.01160000      -0.05450000      -0.02140000
O        0.56340000      -0.83590000      -1.12970000
C        0.11280000      -1.84940000      -0.19410000
C        0.53620000      -1.03360000       1.08060000
O        1.77640000      -0.91770000       1.65870000
C       -0.85080000      -1.17240000       1.75360000
C       -1.16700000      -1.04900000       0.24340000
O       -2.38370000      -0.95540000      -0.38620000
H        1.06040000       1.79920000      -0.17290000
H       -0.53600000       1.78480000      -0.95750000
H       -0.41550000       1.86540000       0.81230000
H        0.24540000      -2.90210000      -0.44450000
H        1.95870000      -1.71230000       2.17190000
H       -1.07380000      -2.13540000       2.22500000
H       -1.17110000      -0.34310000       2.39000000
H       -2.88980000      -1.75610000      -0.21120000
