14
Properties=species:S:1:pos:R:3 gdb_702=T pbc="F F F"
C        0.00960000       1.54220000       0.00050000
C        1.30080000       0.76850000       0.00790000
C       -0.01710000       0.03190000       0.04140000
C       -0.44760000      -0.65870000       1.28870000
C       -1.60210000      -1.56500000       1.33210000
O       -0.26800000      -2.07800000       1.34460000
H       -0.26680000       2.07750000       0.90320000
H       -0.30000000       2.03230000      -0.91550000
H        1.88520000       0.72400000      -0.90390000
H        1.89460000       0.77980000       0.91610000
H       -0.31230000      -0.47940000      -0.87010000
H       -0.17590000      -0.14340000       2.21340000
H       -2.16360000      -1.69110000       2.25720000
H       -2.16700000      -1.75520000       0.41990000
