19
Properties=species:S:1:pos:R:3 gdb_39225=T pbc="F F F"
C        0.00620000       1.54230000      -0.02540000
C        1.53950000       1.72120000      -0.01860000
C        2.01950000       1.42270000       1.45580000
C        0.97580000       0.59640000       2.29680000
C        0.47670000      -0.49570000       1.36810000
O       -0.86450000      -0.69590000       0.84720000
C        0.06470000       0.02010000       0.05930000
C        1.00420000      -0.34420000      -1.06690000
C        1.91570000       0.63660000      -1.05700000
H       -0.52140000       2.01780000       0.80120000
H       -0.43590000       1.86850000      -0.97020000
H        1.88240000       2.71200000      -0.32500000
H        2.97060000       0.88050000       1.43190000
H        2.21670000       2.36980000       1.96810000
H        1.45260000       0.18990000       3.19370000
H        0.15780000       1.23480000       2.63810000
H        1.04440000      -1.42470000       1.37870000
H        1.00170000      -1.25780000      -1.64570000
H        2.81100000       0.68560000      -1.66500000
