15
Properties=species:S:1:pos:R:3 gdb_24279=T pbc="F F F"
C       -0.02410000       1.47400000       0.12330000
C        1.29100000       0.74410000       0.03100000
O        1.97720000       0.40890000       1.22770000
C        1.16000000      -0.43490000       1.90900000
N        1.22880000      -0.96150000       3.09250000
C        0.04680000      -1.69570000       3.16910000
C       -0.71340000      -1.57180000       2.03540000
N        0.04080000      -0.75270000       1.20500000
C       -0.01210000      -0.03610000      -0.02950000
H       -0.33400000       1.88450000       1.07780000
H       -0.30200000       2.05650000      -0.74840000
H        1.96340000       0.88470000      -0.80420000
H       -0.17930000      -2.27830000       4.04890000
H       -1.66330000      -1.98300000       1.74110000
H       -0.39090000      -0.54660000      -0.90610000
