13
Properties=species:S:1:pos:R:3 gdb_130539=T pbc="F F F"
O        0.05360000      -0.09410000       0.00330000
C       -0.02700000       1.11920000       0.00740000
C        1.16010000       1.96720000       0.00130000
C        2.13590000       2.67260000      -0.00370000
C       -1.30700000       1.83080000       0.01860000
C       -2.60900000       1.34830000       0.02660000
C       -3.41230000       2.49700000       0.03550000
N       -2.67790000       3.61760000       0.03360000
N       -1.41600000       3.19080000       0.02330000
H        3.01550000       3.27040000      -0.00820000
H       -2.90160000       0.31190000       0.02580000
H       -4.48950000       2.56800000       0.04340000
H       -0.65800000       3.85560000       0.01980000
