18
Properties=species:S:1:pos:R:3 gdb_112327=T pbc="F F F"
O        0.04630000       1.38480000      -0.12790000
C        0.06210000      -0.02750000      -0.09700000
C       -1.32790000      -0.60030000       0.14810000
O       -2.18770000      -0.13950000      -0.92410000
C       -3.08780000      -1.11460000      -1.29340000
N       -4.12480000      -0.90920000      -1.98210000
C       -2.63390000      -2.42280000      -0.75500000
C       -1.22540000      -2.81870000      -1.15470000
C       -1.46060000      -2.11340000       0.14900000
H       -0.59610000       1.63850000      -0.80030000
H        0.47460000      -0.45180000      -1.02450000
H        0.72190000      -0.32010000       0.72690000
H       -1.71870000      -0.18410000       1.08600000
H       -4.22600000       0.08530000      -2.19110000
H       -3.37710000      -3.18050000      -0.55210000
H       -0.99450000      -3.87650000      -1.10890000
H       -0.75590000      -2.28970000      -1.97660000
H       -1.30930000      -2.63990000       1.08290000
