14
Properties=species:S:1:pos:R:3 gdb_69024=T pbc="F F F"
N       -0.08590000       1.47590000      -0.19570000
C       -0.00900000       0.08370000      -0.05580000
C       -0.29190000      -0.84460000      -1.22700000
C       -1.12370000      -0.99660000       0.00520000
O       -0.37030000      -1.74420000       0.99280000
C        0.59480000      -0.73130000       1.05490000
N        1.55370000      -0.56320000       1.83710000
C       -2.53280000      -0.89970000       0.13480000
N       -3.68220000      -0.80650000       0.23250000
H       -0.04210000       1.94950000       0.69930000
H        0.64520000       1.84080000      -0.79540000
H       -0.77840000      -0.33960000      -2.05540000
H        0.39130000      -1.64630000      -1.48870000
H        1.63460000      -1.32050000       2.51700000
