18
Properties=species:S:1:pos:R:3 gdb_115556=T pbc="F F F"
N        0.01820000       1.52480000      -0.02230000
C       -0.00000000       0.06670000      -0.05740000
C       -0.00760000      -0.55390000       1.37340000
N       -1.44890000      -0.87230000       1.24490000
C       -1.43560000      -0.56280000      -0.20920000
C       -2.60880000       0.32840000      -0.60790000
O       -3.81760000      -0.28760000      -0.20010000
C        1.00430000      -0.49690000      -0.96760000
N        1.80310000      -0.90670000      -1.69750000
H        0.91280000       1.84440000       0.33990000
H       -0.06290000       1.90420000      -0.96200000
H        0.65250000      -1.42220000       1.46670000
H        0.21990000       0.16460000       2.16720000
H       -1.67150000      -1.83780000       1.45530000
H       -1.41050000      -1.45570000      -0.84390000
H       -2.48690000       1.31990000      -0.15530000
H       -2.66090000       0.44220000      -1.69610000
H       -3.75630000      -0.35640000       0.76120000
