15
Properties=species:S:1:pos:R:3 gdb_62462=T pbc="F F F"
O       -0.23570000       1.35840000       0.06670000
C       -0.05190000      -0.02300000       0.01480000
C        1.04810000      -0.51660000      -0.76540000
C        1.97690000      -0.94970000      -1.39680000
C       -0.46140000      -0.87110000       1.24300000
O       -1.16950000      -0.20880000       2.24710000
C       -2.36670000       0.31360000       1.67670000
O       -2.52630000      -0.25610000       0.38570000
C       -1.33030000      -0.87820000       0.03420000
H        0.44840000       1.72560000       0.63890000
H        2.79250000      -1.32120000      -1.96670000
H        0.15700000      -1.68500000       1.60010000
H       -3.22080000       0.03180000       2.30500000
H       -2.28480000       1.40240000       1.59010000
H       -1.45230000      -1.69570000      -0.66450000
