20
Properties=species:S:1:pos:R:3 gdb_22408=T pbc="F F F"
O       -0.23910000       1.46750000       0.20430000
C       -0.05210000       0.06210000       0.13930000
C       -1.41500000      -0.58180000      -0.08420000
C       -1.35480000      -2.10050000      -0.16190000
C       -1.06040000      -2.89300000       1.16190000
C       -2.27130000      -3.74440000       0.84720000
C       -2.71460000      -2.86260000      -0.30120000
N       -2.64710000      -4.84290000       1.35130000
O       -3.81090000      -5.31600000       0.71150000
H        0.61630000       1.87870000       0.35830000
H        0.62650000      -0.21310000      -0.68530000
H        0.39630000      -0.32320000       1.06980000
H       -2.08450000      -0.27440000       0.72960000
H       -1.84250000      -0.17720000      -1.01000000
H       -0.66250000      -2.40970000      -0.95190000
H       -0.10300000      -3.41450000       1.23620000
H       -1.19140000      -2.28060000       2.06190000
H       -3.58680000      -2.24610000      -0.05520000
H       -2.91450000      -3.37460000      -1.24590000
H       -3.97050000      -6.14580000       1.17330000
