11
Properties=species:S:1:pos:R:3 gdb_746=T pbc="F F F"
C       -0.07190000       1.42060000       0.04490000
N       -0.01120000      -0.02370000      -0.01210000
C        0.36510000      -0.82950000      -1.02590000
N        0.27670000      -2.09790000      -0.66930000
C       -0.17230000      -2.00750000       0.61170000
N       -0.36290000      -0.77570000       1.05850000
H        0.25100000       1.82360000      -0.91660000
H       -1.09440000       1.74680000       0.24980000
H        0.58520000       1.79470000       0.83390000
H        0.68850000      -0.45160000      -1.98450000
H       -0.36440000      -2.86990000       1.23250000
