17
Properties=species:S:1:pos:R:3 gdb_44755=T pbc="F F F"
O        0.00640000       0.40150000       1.09610000
C       -0.01770000       1.21880000       0.20920000
O       -1.22970000       1.51540000      -0.33830000
C       -1.47370000       2.44740000      -1.39100000
C       -0.58230000       2.28380000      -2.64520000
C        0.36080000       3.38310000      -2.05710000
C       -0.85500000       3.85190000      -1.19340000
C        1.43410000       2.77930000      -1.20330000
C        1.24280000       1.86250000      -0.24910000
H       -2.55310000       2.39150000      -1.53330000
H       -0.15560000       1.29750000      -2.83440000
H       -1.10740000       2.63670000      -3.53630000
H        0.77540000       4.10620000      -2.76030000
H       -1.45020000       4.60830000      -1.71100000
H       -0.65590000       4.17510000      -0.17040000
H        2.45240000       3.11810000      -1.37790000
H        2.08790000       1.48600000       0.31630000
