18
Properties=species:S:1:pos:R:3 gdb_85015=T pbc="F F F"
C       -0.15800000       1.55940000       0.01530000
C        0.06120000       0.04440000      -0.01950000
C        0.88480000      -0.49160000      -1.20450000
C        1.95550000      -1.38730000      -0.59220000
O        2.76700000      -2.06910000      -1.16810000
N        1.85540000      -1.27270000       0.79350000
C        2.75140000      -1.94530000       1.71680000
C        0.82390000      -0.44230000       1.21540000
O        0.59370000      -0.17820000       2.37080000
H        0.79490000       2.09510000      -0.05030000
H       -0.78600000       1.87990000      -0.82070000
H       -0.64440000       1.84700000       0.95040000
H       -0.91620000      -0.45170000       0.01680000
H        0.30480000      -1.06320000      -1.93240000
H        1.38780000       0.30950000      -1.75660000
H        3.46540000      -2.51670000       1.12340000
H        3.27410000      -1.21250000       2.33660000
H        2.18780000      -2.61260000       2.37370000
