18
Properties=species:S:1:pos:R:3 gdb_110476=T pbc="F F F"
C        0.15070000       1.28530000       0.19880000
O       -0.28890000       0.00220000      -0.19090000
C        0.48240000      -0.56760000      -1.20490000
C        1.89030000      -1.16160000      -0.89840000
C        1.66860000      -2.30900000       0.10330000
C        0.40180000      -2.90280000      -0.40270000
C        0.10110000      -2.00060000      -1.61490000
C        1.60310000      -2.28590000      -1.94810000
N        1.71980000      -3.41540000      -0.91500000
H        1.17090000       1.26370000       0.60980000
H        0.13380000       1.99360000      -0.64430000
H       -0.53260000       1.64200000       0.97290000
H        0.53830000       0.09110000      -2.08860000
H        2.80230000      -0.57110000      -0.85550000
H        2.05380000      -2.43590000       1.10700000
H       -0.26910000      -3.52200000       0.17880000
H       -0.74250000      -2.22680000      -2.26210000
H        2.04540000      -2.38550000      -2.93570000
