19
Properties=species:S:1:pos:R:3 gdb_23547=T pbc="F F F"
C       -0.19560000       1.60390000      -0.05330000
C       -0.07970000       0.07980000       0.05450000
C        0.72440000      -0.51910000      -1.09110000
N        2.18930000      -0.11750000      -1.23480000
C        2.90230000      -0.68740000      -0.08720000
C        2.56490000      -1.60330000      -1.20770000
C        1.13510000      -1.98390000      -1.12660000
N        0.56700000      -3.10530000      -1.27870000
O       -0.83510000      -2.96070000      -1.21750000
H        0.79140000       2.07590000      -0.04560000
H       -0.69440000       1.89620000      -0.98370000
H       -0.77440000       2.01260000       0.78020000
H        0.35890000      -0.19580000       1.01980000
H       -1.07110000      -0.38550000       0.03080000
H        0.23610000      -0.27100000      -2.04130000
H        3.93360000      -0.35290000      -0.02530000
H        2.40510000      -0.79970000       0.87180000
H        3.31000000      -2.03290000      -1.86690000
H       -1.13830000      -3.86350000      -1.36070000
