22
Properties=species:S:1:pos:R:3 gdb_59945=T pbc="F F F"
C       -0.88730000       0.78770000      -2.49810000
C        0.39550000       0.00090000      -2.77840000
O        1.38250000       0.86120000      -3.34820000
C        1.05810000      -0.58730000      -1.52020000
C        0.69100000      -2.04610000      -1.13430000
C        1.53520000      -2.46120000       0.09300000
C       -0.80920000      -2.22600000      -0.81090000
C        1.03470000      -2.94280000      -2.25300000
N        1.29810000      -3.65340000      -3.12630000
H       -1.66200000       0.16810000      -2.03870000
H       -0.67100000       1.62700000      -1.82910000
H       -1.30160000       1.19200000      -3.42900000
H        0.17430000      -0.82030000      -3.47860000
H        1.00160000       1.27200000      -4.13100000
H        2.13740000      -0.54650000      -1.69240000
H        0.84890000       0.05020000      -0.65280000
H        1.28630000      -1.81780000       0.94260000
H        1.33270000      -3.49790000       0.37450000
H        2.60400000      -2.36290000      -0.11320000
H       -1.43870000      -2.04180000      -1.68380000
H       -1.00690000      -3.24480000      -0.46660000
H       -1.10050000      -1.53170000      -0.01660000
