22
Properties=species:S:1:pos:R:3 gdb_118406=T pbc="F F F"
C        0.07010000       1.50330000      -0.14740000
C        0.02550000      -0.01130000      -0.07150000
O        0.82860000      -0.52300000      -1.14520000
C        0.91560000      -1.87120000      -1.27350000
C        1.82290000      -2.18590000      -2.45820000
O        1.71040000      -1.24860000      -3.50500000
N        0.32960000      -2.63600000      -0.45650000
C        0.42230000      -4.08190000      -0.54140000
C        1.24390000      -4.63950000       0.62590000
H        1.09560000       1.87080000      -0.04760000
H       -0.33300000       1.86050000      -1.09960000
H       -0.52890000       1.93290000       0.66110000
H        0.42000000      -0.38870000       0.87760000
H       -0.99310000      -0.39970000      -0.17300000
H        2.85740000      -2.24660000      -2.07710000
H        1.57530000      -3.16570000      -2.87180000
H        1.60170000      -0.38720000      -3.08570000
H       -0.59820000      -4.47950000      -0.47670000
H        0.84230000      -4.44720000      -1.48990000
H        2.28320000      -4.29980000       0.57010000
H        0.82980000      -4.30090000       1.57980000
H        1.24030000      -5.73400000       0.61210000
