21
Properties=species:S:1:pos:R:3 gdb_89259=T pbc="F F F"
C       -0.31180000       1.50330000      -0.17670000
C        0.10720000       0.05150000      -0.05600000
O        1.22890000      -0.34140000      -0.90720000
C        1.83030000      -1.12090000       0.17470000
C        1.96670000      -2.58280000      -0.15800000
C        3.01470000      -0.43470000       0.90220000
C        2.85760000       1.05000000       0.88410000
C        2.00250000       0.25290000       1.83890000
C        0.83080000      -0.51610000       1.18220000
H       -0.51660000       1.74760000      -1.22430000
H       -1.23490000       1.66470000       0.39110000
H        0.44390000       2.19360000       0.20060000
H       -0.75660000      -0.58460000      -0.30400000
H        2.68080000      -2.71580000      -0.97890000
H        2.33600000      -3.14430000       0.70660000
H        1.00790000      -3.00750000      -0.46930000
H        3.95190000      -0.92530000       1.13930000
H        3.65840000       1.59900000       1.37030000
H        2.45260000       1.52900000       0.00250000
H        2.08220000       0.41160000       2.90750000
H        0.26290000      -1.14150000       1.87120000
