19
Properties=species:S:1:pos:R:3 gdb_57712=T pbc="F F F"
C        0.31370000       1.52850000       0.26900000
C       -0.11290000       0.06550000      -0.00420000
C        0.25740000      -0.83590000       1.19030000
N       -1.54250000      -0.08460000      -0.34170000
C       -2.51490000       0.21150000       0.70140000
C       -2.87060000      -1.02110000       1.52630000
O       -3.19160000      -0.98710000       2.68450000
C        0.63010000      -0.40970000      -1.19210000
N        1.22070000      -0.75450000      -2.12320000
H        1.38910000       1.59290000       0.45550000
H        0.07730000       2.16590000      -0.58770000
H       -0.20670000       1.91550000       1.14920000
H       -0.23590000      -0.48600000       2.10090000
H       -0.04020000      -1.86910000       0.99900000
H        1.33590000      -0.80890000       1.36040000
H       -1.74220000       0.44680000      -1.17960000
H       -2.25220000       1.02770000       1.38910000
H       -3.44850000       0.51000000       0.20570000
H       -2.82630000      -1.96930000       0.94500000
