16
Properties=species:S:1:pos:R:3 gdb_34584=T pbc="F F F"
N        0.13290000      -1.17380000       0.03760000
C        0.01280000      -0.02030000       0.02960000
C       -0.08520000       1.40020000       0.00020000
C       -1.28940000       1.99760000       0.13240000
C       -1.57040000       3.42050000       0.07630000
C       -0.71510000       4.45580000       0.12590000
C        0.76480000       4.45450000       0.36330000
O        1.34510000       3.23220000       0.74400000
C        1.20710000       2.17500000      -0.18730000
H       -2.15550000       1.35330000       0.25400000
H       -2.62380000       3.66170000      -0.04110000
H       -1.12970000       5.45650000       0.01370000
H        1.26950000       4.87940000      -0.52420000
H        0.98380000       5.14230000       1.19100000
H        2.06040000       1.50940000      -0.03510000
H        1.26030000       2.55630000      -1.21890000
