15
Properties=species:S:1:pos:R:3 gdb_48116=T pbc="F F F"
O       -1.09810000       1.89290000       0.60740000
C       -0.06790000       1.28590000       0.46960000
C        1.26420000       1.95580000       0.10660000
O        2.24690000       1.26630000      -0.02530000
C        1.20870000       3.44890000      -0.11670000
O        2.49180000       4.08800000      -0.24760000
C        2.11990000       4.60690000      -1.53100000
C        1.88950000       3.50310000      -2.50770000
C        0.79060000       3.88600000      -1.53280000
H        0.01930000       0.18510000       0.58710000
H        0.60370000       3.92940000       0.65940000
H        2.40040000       5.62710000      -1.76130000
H        1.69510000       3.81470000      -3.52920000
H        2.43760000       2.57220000      -2.39790000
H       -0.20060000       4.20300000      -1.82230000
