18
Properties=species:S:1:pos:R:3 gdb_11918=T pbc="F F F"
O        0.01060000       1.40670000      -0.06200000
C        0.01070000      -0.00740000       0.00050000
C        0.55530000      -0.59140000       1.31760000
O       -0.04290000      -1.87140000       1.41230000
C       -1.37570000      -1.73710000       0.94510000
C       -2.12650000      -3.01270000       0.75810000
C       -2.48390000      -2.07770000       1.90420000
C       -1.43460000      -0.53560000       0.00130000
H        0.91830000       1.70350000      -0.17910000
H        0.56890000      -0.43670000      -0.84370000
H        1.64090000      -0.72340000       1.33830000
H        0.25730000       0.06940000       2.14810000
H       -2.80900000      -3.09260000      -0.08170000
H       -1.60320000      -3.92870000       1.00950000
H       -2.19320000      -2.38630000       2.90210000
H       -3.41230000      -1.51820000       1.84700000
H       -2.08630000       0.25280000       0.38970000
H       -1.78130000      -0.80040000      -1.00030000
