17
Properties=species:S:1:pos:R:3 gdb_50448=T pbc="F F F"
O       -0.33150000       0.16450000      -0.76280000
C       -0.04860000       1.32680000      -0.60290000
N        1.05540000       1.80010000       0.08750000
C        1.28960000       3.24440000       0.18120000
C        1.42830000       3.71550000       1.60700000
C        2.42150000       3.27710000       2.37530000
C        3.46580000       2.29270000       1.89120000
N        2.99260000       1.02350000       1.34070000
C        1.96950000       0.86620000       0.61210000
H       -0.66220000       2.15740000      -1.00220000
H        2.19200000       3.49420000      -0.39270000
H        0.45240000       3.73890000      -0.31740000
H        0.68650000       4.40940000       1.99000000
H        2.50400000       3.61890000       3.40370000
H        4.11840000       2.77610000       1.14640000
H        4.12610000       2.03520000       2.72450000
H        1.70100000      -0.14030000       0.29790000
