18
Properties=species:S:1:pos:R:3 gdb_90565=T pbc="F F F"
C       -0.01050000       1.66220000      -0.03900000
C        0.34370000       0.19340000      -0.12520000
O        1.69120000      -0.08180000      -0.63510000
C        1.92300000      -1.00320000       0.41980000
C        1.93040000      -0.31920000       1.74960000
O        2.33630000       1.01020000       1.93620000
C        3.55080000       1.35220000       1.44120000
N        3.98680000       2.52010000       1.62730000
C        0.60810000      -0.65810000       1.12230000
H        0.02650000       2.11120000      -1.03680000
H       -1.03370000       1.76850000       0.33800000
H        0.66640000       2.20310000       0.62170000
H       -0.36640000      -0.33320000      -0.77550000
H        2.41900000      -1.93850000       0.18390000
H        2.18570000      -0.96780000       2.58640000
H        4.04520000       0.53560000       0.90340000
H        4.89920000       2.62190000       1.18760000
H       -0.12470000      -1.28020000       1.61850000
