18
Properties=species:S:1:pos:R:3 gdb_51423=T pbc="F F F"
N       -0.08420000       1.26500000      -0.03560000
C       -0.04370000       0.00500000      -0.07610000
O       -1.13400000      -0.71410000       0.26550000
C       -1.03730000      -2.11770000       0.09920000
C       -2.36020000      -2.82680000       0.51250000
C       -2.92320000      -2.38030000      -0.87770000
C       -1.46300000      -2.67860000      -1.29230000
O       -1.31850000      -4.08930000      -1.08850000
C       -1.97080000      -4.27290000       0.19710000
H        0.82000000       1.64980000      -0.30100000
H        0.81800000      -0.61510000      -0.35920000
H       -0.09730000      -2.50160000       0.51160000
H       -2.85660000      -2.61440000       1.45750000
H       -3.70210000      -2.99150000      -1.33790000
H       -3.17280000      -1.32130000      -0.90530000
H       -1.00990000      -2.38550000      -2.23800000
H       -1.26430000      -4.70910000       0.91220000
H       -2.83220000      -4.94190000       0.09150000
