21
Properties=species:S:1:pos:R:3 gdb_108333=T pbc="F F F"
C        0.06740000       1.52900000       0.21200000
C       -0.11940000       0.03760000      -0.09340000
C        0.67060000      -0.47320000      -1.28420000
C        0.92690000      -1.99390000      -1.40340000
O        2.34860000      -1.77980000      -1.60430000
C        2.20410000      -0.34920000      -1.42250000
C        2.05110000       0.49940000      -2.70300000
C        1.31090000      -0.27330000      -3.75320000
C        0.52520000       0.31690000      -2.61560000
H        1.11780000       1.76370000       0.41460000
H       -0.25820000       2.16080000      -0.61950000
H       -0.51230000       1.81660000       1.09410000
H        0.16500000      -0.54720000       0.79070000
H       -1.18590000      -0.16830000      -0.26370000
H        0.74010000      -2.55180000      -0.47640000
H        0.46110000      -2.52380000      -2.24240000
H        2.86050000       0.04780000      -0.64360000
H        2.62980000       1.38630000      -2.93220000
H        1.18870000       0.24600000      -4.69850000
H        1.47270000      -1.34110000      -3.84950000
H       -0.25440000       1.04760000      -2.79730000
