18
Properties=species:S:1:pos:R:3 gdb_42913=T pbc="F F F"
O        0.42650000       0.10000000      -0.27410000
C        0.12600000       1.23820000      -0.04840000
C       -1.15890000       1.99920000      -0.01240000
C       -1.17240000       2.88650000       1.23120000
C       -0.34230000       3.32090000       0.08130000
C        0.98190000       2.54040000       0.07980000
N        1.83170000       2.66310000       1.24240000
C        3.13400000       2.00610000       1.14090000
C        3.03140000       3.48930000       1.09810000
H       -2.06870000       1.77170000      -0.55330000
H       -2.11100000       3.41080000       1.37670000
H       -0.68990000       2.55300000       2.14320000
H       -0.52820000       4.22640000      -0.48050000
H        1.52770000       2.67180000      -0.87210000
H        3.47380000       1.50140000       2.04020000
H        3.36950000       1.48930000       0.21320000
H        3.19920000       3.97660000       0.13880000
H        3.29530000       4.08720000       1.96520000
