16
Properties=species:S:1:pos:R:3 gdb_125628=T pbc="F F F"
C       -0.02420000       1.46070000      -0.04230000
C       -0.02230000      -0.03580000      -0.02170000
N       -0.07630000      -0.66480000      -1.15430000
N       -0.06610000      -2.01880000      -1.11540000
C       -0.01350000      -2.77050000       0.01950000
N       -0.08240000      -4.14420000      -0.17300000
C        0.04830000      -2.14590000       1.23390000
C        0.03770000      -0.70820000       1.30880000
O        0.08780000      -0.04770000       2.34390000
H        0.87620000       1.84420000       0.44850000
H       -0.07740000       1.83220000      -1.06660000
H       -0.86930000       1.84230000       0.53950000
H       -0.22030000      -2.45310000      -2.01080000
H        0.46220000      -4.49610000      -0.94970000
H        0.10330000      -4.67240000       0.66770000
H        0.11740000      -2.72210000       2.14860000
