21
Properties=species:S:1:pos:R:3 gdb_104463=T pbc="F F F"
O       -0.10350000       1.45070000      -0.15260000
C       -0.00510000       0.04040000       0.03750000
C       -1.43440000      -0.50700000       0.02490000
O       -2.06110000      -0.12390000      -1.19360000
C       -1.44390000      -2.04040000       0.06400000
C       -2.87870000      -2.56340000       0.22100000
C       -3.55240000      -1.89460000       1.41900000
O       -3.53700000      -0.48240000       1.30370000
C       -2.22710000       0.03690000       1.23610000
H        0.76490000       1.79560000      -0.37580000
H        0.55910000      -0.42930000      -0.78050000
H        0.49570000      -0.19760000       0.98790000
H       -1.87310000       0.81680000      -1.30240000
H       -0.98460000      -2.42430000      -0.85270000
H       -0.82950000      -2.37850000       0.90910000
H       -3.44930000      -2.33040000      -0.68300000
H       -2.88150000      -3.65150000       0.35040000
H       -4.60500000      -2.18220000       1.49630000
H       -3.04850000      -2.20140000       2.35420000
H       -1.67210000      -0.19460000       2.16390000
H       -2.32280000       1.12290000       1.16170000
