18
Properties=species:S:1:pos:R:3 gdb_110753=T pbc="F F F"
C        0.12430000       1.07840000       0.31930000
O       -0.47010000      -0.02790000      -0.33500000
C        0.31940000      -0.54300000      -1.35090000
C        1.41610000      -1.54150000      -1.09210000
N        1.08540000      -2.43050000       0.02360000
C       -0.14850000      -2.79390000      -0.55320000
O       -1.03170000      -3.50300000      -0.16890000
C        0.12270000      -1.97080000      -1.81440000
C       -0.17540000      -2.38590000      -3.22480000
H        1.08380000       0.80790000       0.78340000
H        0.30000000       1.91180000      -0.37700000
H       -0.57260000       1.40320000       1.09430000
H        0.52210000       0.16080000      -2.16440000
H        2.42520000      -1.49230000      -1.48190000
H        1.14370000      -2.13570000       0.99240000
H       -1.25750000      -2.43730000      -3.38430000
H        0.23710000      -1.67480000      -3.94680000
H        0.24170000      -3.37390000      -3.44330000
