23
Properties=species:S:1:pos:R:3 gdb_104980=T pbc="F F F"
C        0.13720000       1.50120000       0.16360000
C        0.04680000      -0.02340000       0.00670000
C        0.52190000      -0.67880000       1.31410000
O       -1.35520000      -0.29460000      -0.16450000
C        0.79460000      -0.51460000      -1.24850000
C        0.39210000       0.23200000      -2.51670000
O        0.95830000      -0.41360000      -3.65110000
C        2.21420000      -1.01590000      -1.17800000
C        1.08470000      -1.99330000      -1.40690000
H        1.18140000       1.82370000       0.20870000
H       -0.35530000       2.01550000      -0.66390000
H       -0.36200000       1.80870000       1.08670000
H       -0.14400000      -0.35620000       2.11860000
H        0.48260000      -1.77110000       1.27120000
H        1.54170000      -0.38360000       1.57580000
H       -1.43740000      -1.23560000      -0.35650000
H       -0.70520000       0.25470000      -2.57840000
H        0.74780000       1.27120000      -2.45950000
H        0.72250000       0.09820000      -4.42930000
H        2.85370000      -0.79680000      -2.02510000
H        2.71820000      -1.03420000      -0.21920000
H        0.82870000      -2.67200000      -0.60140000
H        0.98190000      -2.40920000      -2.40080000
