19
Properties=species:S:1:pos:R:3 gdb_14104=T pbc="F F F"
C       -0.26030000       1.51500000       0.06420000
C        0.13030000       0.05240000      -0.01850000
O        1.35240000      -0.15040000      -0.77350000
C        1.98360000      -0.87780000       0.30410000
C        0.77760000      -0.62810000       1.19860000
C        0.67930000      -0.27230000       2.63370000
N        0.22310000      -1.57420000       2.13920000
C       -1.21570000      -1.80000000       2.11170000
H        0.53050000       2.10330000       0.53840000
H       -0.43350000       1.91380000      -0.94050000
H       -1.18350000       1.63810000       0.64120000
H       -0.69030000      -0.53680000      -0.45480000
H        2.15120000      -1.93360000       0.05600000
H        2.93210000      -0.41950000       0.60970000
H        1.55920000      -0.28730000       3.27260000
H       -0.07680000       0.46020000       2.91700000
H       -1.80590000      -0.89610000       1.88680000
H       -1.45110000      -2.55890000       1.35870000
H       -1.53440000      -2.17930000       3.08730000
