19
Properties=species:S:1:pos:R:3 gdb_122481=T pbc="F F F"
O       -0.10440000       1.38780000      -0.51650000
C       -0.01140000       0.07890000       0.02350000
C       -1.38160000      -0.57460000      -0.09490000
C       -1.40900000      -1.99510000       0.48280000
C       -2.77120000      -2.62740000       0.35320000
O       -3.16000000      -3.08110000      -0.94270000
C       -2.97950000      -4.06920000       0.08680000
C       -1.88950000      -4.99670000      -0.05940000
C       -1.00160000      -5.80090000      -0.16020000
H        0.76570000       1.79430000      -0.47240000
H        0.73530000      -0.52550000      -0.51740000
H        0.29840000       0.10490000       1.08200000
H       -2.11410000       0.05980000       0.41940000
H       -1.67210000      -0.60110000      -1.15080000
H       -0.67410000      -2.62890000      -0.02400000
H       -1.13690000      -1.97490000       1.54700000
H       -3.57340000      -2.12140000       0.89600000
H       -3.91110000      -4.51570000       0.43440000
H       -0.21530000      -6.50840000      -0.25740000
