19
Properties=species:S:1:pos:R:3 gdb_56280=T pbc="F F F"
O       -0.52910000       0.02390000       0.66300000
C       -0.26390000       1.29230000       0.31490000
O        0.65710000       1.92160000       0.75700000
C       -1.24060000       1.84590000      -0.73670000
N       -2.45710000       1.03950000      -0.80940000
H       -2.81310000       0.99580000      -1.75700000
H       -1.33230000      -0.21530000       0.15180000
C       -3.52200000       1.46190000       0.10760000
C       -4.74520000       0.59780000      -0.05930000
C       -6.09160000       1.13330000       0.24590000
N       -5.70250000       0.86680000      -1.15120000
H       -1.41650000       2.90620000      -0.51150000
H       -0.72160000       1.80290000      -1.70000000
H       -3.13730000       1.37250000       1.13160000
H       -3.79660000       2.52240000      -0.03710000
H       -4.56670000      -0.46420000       0.09540000
H       -6.85860000       0.47490000       0.64230000
H       -6.16820000       2.16610000       0.57660000
H       -5.47020000       1.74870000      -1.60500000
