18
Properties=species:S:1:pos:R:3 gdb_11381=T pbc="F F F"
C        0.01530000       1.60210000       0.09160000
C        0.02280000       0.07200000       0.03280000
C        0.66440000      -0.51120000      -1.24330000
C        0.74240000      -2.05390000      -1.25470000
C        0.06040000      -2.50540000      -2.55650000
O       -0.04380000      -3.64440000      -2.94820000
C       -0.43600000      -1.27820000      -3.22220000
C       -0.10360000      -0.19580000      -2.51000000
H        1.03040000       2.00630000       0.00830000
H       -0.58390000       2.04070000      -0.71280000
H       -0.40440000       1.95350000       1.03890000
H        0.57400000      -0.31940000       0.89650000
H       -1.00170000      -0.31170000       0.12190000
H        1.67110000      -0.07700000      -1.32980000
H        1.76560000      -2.43840000      -1.22190000
H        0.21100000      -2.49920000      -0.40680000
H       -0.97930000      -1.30450000      -4.15830000
H       -0.34260000       0.82510000      -2.78940000
