16
Properties=species:S:1:pos:R:3 gdb_66983=T pbc="F F F"
O       -0.25200000       1.32650000       0.02230000
C       -0.01990000      -0.02660000      -0.01640000
C       -0.23060000      -0.89010000      -1.28630000
C        0.48460000      -2.19880000      -1.01940000
N        0.04730000      -2.09010000       0.44070000
C       -1.04680000      -1.10870000      -0.03890000
C        0.81130000      -0.88790000       0.95020000
C        2.31580000      -0.84260000       0.95080000
O        3.06730000      -1.67970000       0.51750000
H        0.36840000       1.76820000      -0.56820000
H       -0.54210000      -0.41990000      -2.21170000
H       -0.03010000      -3.05520000      -1.46290000
H        1.56020000      -2.28720000      -1.16860000
H       -2.09780000      -1.16150000       0.20520000
H        0.48200000      -0.68170000       1.97760000
H        2.71060000       0.09120000       1.41890000
