19
Properties=species:S:1:pos:R:3 gdb_58547=T pbc="F F F"
C        0.00990000       1.61000000       0.00180000
C        0.00130000       0.08090000      -0.01960000
O        0.77430000      -0.45810000       1.04610000
C       -1.41910000      -0.51810000       0.00430000
N       -2.21960000      -0.00640000      -1.09660000
C       -1.47130000      -2.05790000       0.15270000
O       -2.09800000      -1.92120000       1.47150000
C       -2.04550000      -0.55200000       1.40500000
N       -2.39370000       0.32630000       2.23430000
H        1.04260000       1.96220000       0.06910000
H       -0.42820000       2.02630000      -0.90980000
H       -0.54890000       1.98900000       0.86460000
H        0.48500000      -0.27430000      -0.93660000
H        0.46200000      -0.05270000       1.86430000
H       -3.13160000      -0.45510000      -1.10350000
H       -2.39800000       0.98400000      -0.95720000
H       -2.13230000      -2.57710000      -0.54560000
H       -0.50610000      -2.55760000       0.23730000
H       -2.78880000      -0.08860000       3.08080000
