20
Properties=species:S:1:pos:R:3 gdb_117566=T pbc="F F F"
C        0.31200000       1.28020000       0.29860000
C       -0.14620000      -0.12430000      -0.05150000
O        0.91010000      -0.77510000      -0.74500000
C        0.64420000      -2.11930000      -1.10350000
C       -0.40480000      -2.23390000      -2.12620000
C       -1.25840000      -2.33660000      -2.96620000
C        1.94770000      -2.74490000      -1.59330000
C        2.92380000      -1.93910000      -2.35790000
N        3.21410000      -2.35850000      -0.96910000
H        1.20420000       1.25100000       0.93060000
H        0.55070000       1.84350000      -0.60790000
H       -0.47770000       1.81100000       0.83850000
H       -0.39680000      -0.69310000       0.85860000
H       -1.04600000      -0.09740000      -0.68180000
H        0.31190000      -2.67190000      -0.20650000
H       -2.01170000      -2.42760000      -3.70960000
H        1.84800000      -3.80620000      -1.80650000
H        3.53720000      -2.41170000      -3.11910000
H        2.68020000      -0.89650000      -2.53380000
H        3.03160000      -1.56330000      -0.35950000
