21
Properties=species:S:1:pos:R:3 gdb_96571=T pbc="F F F"
C       -0.19250000       1.56390000       0.03540000
C       -0.05470000       0.02680000       0.01270000
C        0.34360000      -0.51800000      -1.40410000
O        1.66900000      -0.97370000      -1.58100000
C        2.70610000      -0.03180000      -1.68860000
O        3.56890000      -0.01680000      -0.59150000
C        3.04050000       0.57050000       0.59690000
C        2.09490000      -0.32540000       1.36860000
C        0.80190000      -0.54330000       1.12500000
H        0.72800000       2.08240000      -0.24120000
H       -0.96670000       1.87840000      -0.67300000
H       -0.48500000       1.91260000       1.03010000
H       -1.06900000      -0.35430000       0.18000000
H       -0.26860000      -1.39630000      -1.62820000
H        0.09950000       0.24960000      -2.15450000
H        3.33590000      -0.33540000      -2.53120000
H        2.28900000       0.97330000      -1.87830000
H        3.91560000       0.79120000       1.21420000
H        2.56960000       1.53040000       0.34840000
H        2.54800000      -0.86470000       2.19720000
H        0.29300000      -1.25020000       1.77710000
