18
Properties=species:S:1:pos:R:3 gdb_76154=T pbc="F F F"
C       -0.03600000       1.53670000       0.06020000
C        0.00950000       0.02400000      -0.02930000
C       -1.24390000      -0.61430000      -0.59910000
C        1.32130000      -0.67040000      -0.31550000
O        2.51180000       0.02450000      -0.45330000
C        0.72270000      -0.73600000       1.09750000
O        1.38600000       0.07100000       2.04200000
C        0.18570000      -1.96130000       1.62600000
N       -0.21670000      -2.95790000       2.05680000
H        0.89430000       1.96570000       0.43160000
H       -0.22490000       1.95230000      -0.93490000
H       -0.84550000       1.86030000       0.72190000
H       -1.42950000      -0.22970000      -1.60750000
H       -1.16030000      -1.70240000      -0.66380000
H       -2.11780000      -0.38470000       0.01970000
H        1.30090000      -1.56800000      -0.92640000
H        2.67310000       0.47410000       0.38810000
H        1.99560000      -0.49010000       2.53740000
