19
Properties=species:S:1:pos:R:3 gdb_66851=T pbc="F F F"
C       -0.02380000       1.51470000       0.01100000
C        0.02600000       0.01070000      -0.03400000
C        0.70940000      -0.76190000      -1.18350000
C        0.96270000      -2.05430000      -0.49180000
O        1.17320000      -1.90910000       0.89050000
C        0.35600000      -0.81880000       1.29210000
C       -1.12990000      -1.26150000       1.36950000
C       -1.23650000      -0.91030000      -0.13040000
C       -0.41570000      -1.81760000      -1.07560000
H        0.97880000       1.93980000       0.14010000
H       -0.44390000       1.92570000      -0.91340000
H       -0.64340000       1.86880000       0.84260000
H        1.25460000      -0.36030000      -2.02830000
H        1.58500000      -2.82510000      -0.92940000
H        0.81810000      -0.33130000       2.15320000
H       -1.30380000      -2.29090000       1.69160000
H       -1.72690000      -0.57750000       1.98090000
H       -2.17260000      -0.54320000      -0.55480000
H       -0.82320000      -2.46800000      -1.84150000
