16
Properties=species:S:1:pos:R:3 gdb_69882=T pbc="F F F"
N       -0.03710000       1.41800000      -0.16410000
C        0.01420000       0.00900000      -0.07810000
C       -0.39400000      -0.88000000      -1.21660000
C       -1.10830000      -0.98250000       0.10680000
N       -0.40360000      -1.71620000       1.23550000
C        0.87840000      -2.27100000       0.79220000
C        0.78790000      -0.80360000       1.02410000
C        1.42930000      -0.12720000       2.10910000
N        1.95910000       0.47650000       2.94280000
H       -0.12350000       1.84960000       0.75110000
H        0.79350000       1.79820000      -0.60820000
H       -0.98500000      -0.34410000      -1.95250000
H        0.23440000      -1.65340000      -1.64240000
H       -2.17360000      -0.83580000       0.22040000
H        1.36370000      -2.85280000       1.57080000
H        1.00920000      -2.66600000      -0.20800000
