14
Properties=species:S:1:pos:R:3 gdb_1226=T pbc="F F F"
N       -0.00280000       1.33350000      -0.10520000
C        0.03720000       0.00510000       0.19310000
O        1.04000000      -0.54540000       0.60320000
C       -1.28970000      -0.73680000       0.00560000
C       -1.06200000      -2.21810000      -0.31770000
C       -2.28380000      -3.05690000      -0.03620000
O       -2.79470000      -3.82550000      -0.80850000
H        0.82960000       1.88210000       0.03580000
H       -0.82830000       1.78480000      -0.45670000
H       -1.84000000      -0.64280000       0.95280000
H       -1.90540000      -0.25350000      -0.76050000
H       -0.75420000      -2.36800000      -1.35560000
H       -0.24660000      -2.56650000       0.33120000
H       -2.70110000      -2.91560000       0.99070000
