19
Properties=species:S:1:pos:R:3 gdb_71993=T pbc="F F F"
C       -0.17280000       1.47120000      -0.07080000
C       -0.00660000      -0.01880000      -0.05550000
C        0.94940000      -0.87190000      -0.89340000
C        0.15330000      -2.08650000      -0.36170000
O        0.46940000      -2.11040000       1.05400000
C       -0.30670000      -0.91770000       1.20050000
C       -0.63850000      -0.43760000       2.57190000
C       -1.07070000      -1.10150000      -0.07620000
O       -2.37940000      -1.01150000      -0.46900000
H        0.71320000       1.97600000       0.33100000
H       -0.33240000       1.83890000      -1.09060000
H       -1.03600000       1.78590000       0.52440000
H        0.78670000      -0.70950000      -1.96300000
H        2.01920000      -0.86310000      -0.66000000
H        0.16720000      -3.06840000      -0.83060000
H        0.26880000      -0.15720000       3.11800000
H       -1.29220000       0.43740000       2.52710000
H       -1.15040000      -1.21830000       3.14420000
H       -2.88860000      -1.68510000      -0.00260000
