21
Properties=species:S:1:pos:R:3 gdb_89588=T pbc="F F F"
O        0.85690000       0.46610000      -0.76910000
C        0.05400000      -0.32000000       0.07440000
C        0.05510000      -0.06210000       1.60460000
C       -1.47400000      -0.36440000       1.60740000
C       -1.48640000      -0.12400000       0.07770000
C       -1.86940000      -1.76440000       2.09400000
C       -2.24940000      -1.49910000       3.55640000
C       -2.92110000      -0.12660000       3.44320000
O       -2.27130000       0.54310000       2.36190000
H        0.65400000       1.39090000      -0.59240000
H        0.32160000      -1.35540000      -0.15550000
H        0.71290000      -0.66180000       2.23980000
H        0.21610000       0.99960000       1.81910000
H       -1.74370000       0.92070000      -0.12670000
H       -2.10270000      -0.77490000      -0.54800000
H       -2.74160000      -2.12120000       1.53360000
H       -1.06930000      -2.49880000       1.97400000
H       -2.90580000      -2.26070000       3.98420000
H       -1.35130000      -1.43560000       4.18020000
H       -3.99410000      -0.22880000       3.22190000
H       -2.82010000       0.48210000       4.34810000
