19
Properties=species:S:1:pos:R:3 gdb_77600=T pbc="F F F"
C       -0.11910000       1.54380000      -0.06930000
C        0.01030000       0.04850000       0.01870000
N        0.35810000      -0.67440000      -1.19050000
C        1.18360000      -1.71880000      -0.81090000
N        1.39900000      -1.86590000       0.44560000
C        0.71180000      -0.79110000       1.12550000
C        1.36740000      -0.25940000       2.37340000
C       -0.80610000      -0.78670000       0.96960000
O       -1.57310000      -0.06310000       1.88800000
H        0.83620000       2.01490000      -0.32590000
H       -0.85660000       1.82790000      -0.82960000
H       -0.46360000       1.94600000       0.88420000
H        0.56140000      -0.15630000      -2.03360000
H        1.58780000      -2.38090000      -1.57020000
H        2.34880000       0.17000000       2.14930000
H        0.75250000       0.51100000       2.84470000
H        1.52060000      -1.07180000       3.09220000
H       -1.27250000      -1.69110000       0.57520000
H       -1.55960000      -0.53820000       2.72600000
