19
Properties=species:S:1:pos:R:3 gdb_73294=T pbc="F F F"
C        0.02720000       1.51480000      -0.04140000
C        0.04340000       0.00850000      -0.03650000
C        0.44660000      -0.77220000      -1.27760000
O        0.32120000      -2.13620000      -0.83210000
C       -0.10470000      -2.00490000       0.50450000
C       -0.30840000      -3.31970000       1.19500000
C        0.60850000      -0.79090000       1.18740000
O       -0.59080000      -0.50360000       1.98020000
C       -1.10690000      -0.81110000       0.64280000
H        1.01980000       1.92320000      -0.26090000
H       -0.66590000       1.90330000      -0.79570000
H       -0.28830000       1.88070000       0.93940000
H       -0.21850000      -0.59570000      -2.13250000
H        1.47890000      -0.57570000      -1.59350000
H        0.62210000      -3.89490000       1.21180000
H       -0.63630000      -3.13770000       2.22090000
H       -1.06570000      -3.91480000       0.67590000
H        1.58010000      -0.71690000       1.67860000
H       -2.18530000      -0.76120000       0.48320000
