19
Properties=species:S:1:pos:R:3 gdb_96088=T pbc="F F F"
O        0.17710000       1.38550000      -0.31680000
C       -0.06140000       0.01440000      -0.02530000
C        0.70960000      -0.46460000       1.21720000
O       -0.01800000      -0.29840000       2.42610000
C       -1.12350000      -1.17830000       2.48620000
C       -2.10750000      -0.92020000       1.35780000
O       -3.16430000      -1.83210000       1.28340000
C       -2.43630000       0.49830000       1.03660000
C       -1.54920000      -0.30690000       0.09140000
H       -0.35170000       1.90840000       0.29520000
H        0.34900000      -0.52090000      -0.88910000
H        0.98100000      -1.52720000       1.09560000
H        1.62700000       0.12080000       1.31700000
H       -0.78070000      -2.22880000       2.43730000
H       -1.60440000      -1.02510000       3.45720000
H       -2.80980000      -2.68000000       0.99190000
H       -3.44310000       0.71070000       0.69810000
H       -1.98580000       1.26440000       1.66050000
H       -2.04170000      -0.60080000      -0.82980000
