14
Properties=species:S:1:pos:R:3 gdb_130398=T pbc="F F F"
N        0.06580000       1.90800000       0.02570000
H       -0.12730000       1.89980000      -0.96980000
H        1.90660000       1.46080000       1.71610000
H       -0.32490000       2.77180000       0.39020000
C       -0.57030000       0.75310000       0.66990000
C        0.04570000       0.52680000       2.01450000
C       -0.37120000      -0.09390000       3.17950000
N        0.63960000      -0.02220000       4.10780000
N        1.64130000       0.60710000       3.58280000
N        1.29000000       0.93670000       2.32040000
C       -1.62230000      -0.71070000       3.42850000
N       -2.65870000      -1.20090000       3.58900000
H       -1.66140000       0.82260000       0.78580000
H       -0.38340000      -0.12760000       0.04310000
