15
Properties=species:S:1:pos:R:3 gdb_12498=T pbc="F F F"
O        0.04760000       0.00290000      -0.50800000
C        0.04430000       1.13100000      -0.08960000
N       -1.10480000       1.83930000       0.19380000
C       -1.23110000       3.29120000       0.06960000
C       -0.52630000       4.04610000       1.19100000
O        0.88430000       3.93130000       1.11700000
C        1.35540000       2.63500000       1.28360000
O        1.21400000       1.80180000       0.13380000
H       -1.92100000       1.30460000      -0.06380000
H       -0.84840000       3.64640000      -0.89630000
H       -2.29900000       3.52430000       0.11290000
H       -0.74560000       5.11450000       1.11170000
H       -0.88860000       3.68130000       2.16440000
H        2.43240000       2.71280000       1.43550000
H        0.87340000       2.14440000       2.14210000
