21
Properties=species:S:1:pos:R:3 gdb_64257=T pbc="F F F"
C        0.17630000       1.51750000       0.08050000
C       -0.04960000       0.00780000      -0.01190000
O       -1.43590000      -0.29890000      -0.10200000
C        0.77200000      -0.61030000      -1.16840000
O        2.06620000      -0.81150000      -0.62740000
C        1.86520000      -1.30870000       0.68380000
C        2.32710000      -2.71270000       0.97180000
C        3.09620000      -1.51050000       1.49980000
C        0.54160000      -0.74690000       1.20420000
H        1.24600000       1.74040000       0.13390000
H       -0.22610000       2.02690000      -0.80460000
H       -0.31470000       1.92780000       0.96770000
H       -1.82670000       0.28030000      -0.76470000
H        0.30140000      -1.55910000      -1.46990000
H        0.86940000       0.03850000      -2.04400000
H        1.75950000      -3.31450000       1.67430000
H        2.77400000      -3.26190000       0.15060000
H        4.04250000      -1.27820000       1.02380000
H        3.05320000      -1.28970000       2.56130000
H        0.67840000      -0.08490000       2.06370000
H       -0.15170000      -1.54030000       1.49320000
