17
Properties=species:S:1:pos:R:3 gdb_20150=T pbc="F F F"
C        0.05270000       1.56060000       0.01110000
C        0.02010000       0.03060000       0.00280000
C        0.81780000      -0.62000000      -1.11400000
C        2.27200000      -0.82120000      -0.69570000
C        1.30200000      -1.96970000      -0.66470000
N        1.24790000      -1.97910000       0.85200000
C        2.19390000      -0.81470000       0.83900000
C        0.75970000      -0.60110000       1.16570000
H        1.08420000       1.92700000       0.01360000
H       -0.44980000       1.96910000      -0.87150000
H       -0.45250000       1.96270000       0.89550000
H       -1.01990000      -0.31960000      -0.01910000
H        0.59050000      -0.45420000      -2.16000000
H        3.13390000      -0.63460000      -1.31960000
H        1.24330000      -2.89840000      -1.21570000
H        3.02260000      -0.74600000       1.53360000
H        0.43340000      -0.45980000       2.19050000
