20
Properties=species:S:1:pos:R:3 gdb_59155=T pbc="F F F"
C        0.06460000       1.35130000      -0.28300000
C        0.06590000      -0.13180000       0.11530000
C        0.69640000      -0.34520000       1.49890000
C       -1.34780000      -0.68740000       0.07920000
C       -2.05020000      -1.22730000      -1.13140000
N       -1.16410000      -1.98760000      -2.01870000
C       -0.76270000      -2.85090000      -0.97910000
O        0.03630000      -3.74300000      -0.95020000
C       -1.70760000      -2.17890000       0.00840000
H        1.08170000       1.75550000      -0.29000000
H       -0.36530000       1.49770000      -1.27940000
H       -0.52430000       1.94750000       0.42420000
H        0.67290000      -0.67940000      -0.61580000
H        0.12580000       0.17680000       2.27640000
H        0.72650000      -1.40770000       1.75750000
H        1.72080000       0.03950000       1.52430000
H       -2.02860000      -0.16110000       0.75060000
H       -3.03100000      -0.92360000      -1.47350000
H       -0.51020000      -1.56650000      -2.66910000
H       -2.35450000      -2.66120000       0.72720000
