16
Properties=species:S:1:pos:R:3 gdb_85346=T pbc="F F F"
C       -0.05220000       1.57110000       0.05330000
C        0.02520000       0.03950000       0.02720000
N        0.78280000      -0.48410000      -1.08730000
C        1.85630000      -1.27030000      -0.72330000
O        2.63840000      -1.81910000      -1.46990000
C        1.82500000      -1.28360000       0.76680000
C        0.79060000      -0.54880000       1.20930000
C        0.39280000      -0.30320000       2.54030000
C        0.02330000      -0.07300000       3.66400000
H        0.95200000       2.00370000       0.05380000
H       -0.59210000       1.94260000      -0.82300000
H       -0.58190000       1.90670000       0.94910000
H       -0.99760000      -0.36710000       0.03330000
H        0.56430000      -0.30300000      -2.05250000
H        2.54920000      -1.82230000       1.35980000
H       -0.28920000       0.11940000       4.66090000
