17
Properties=species:S:1:pos:R:3 gdb_99067=T pbc="F F F"
C        0.10360000       1.28630000       0.16270000
N       -0.08050000      -0.14830000       0.07950000
C       -1.30330000      -0.71980000      -0.00020000
O       -2.37010000      -0.14690000      -0.02760000
O       -1.16160000      -2.08360000      -0.05490000
C       -2.39230000      -2.81560000      -0.13300000
C       -2.75040000      -3.12470000      -1.58740000
C       -2.21010000      -4.03910000       0.66060000
N       -2.09820000      -5.01410000       1.26920000
H        0.71540000       1.65570000      -0.66730000
H       -0.88190000       1.74970000       0.11050000
H        0.58050000       1.57300000       1.10630000
H        0.71420000      -0.76470000       0.11830000
H       -3.18220000      -2.21000000       0.32160000
H       -1.94120000      -3.67490000      -2.07300000
H       -3.66300000      -3.72480000      -1.63240000
H       -2.92070000      -2.18340000      -2.11430000
