20
Properties=species:S:1:pos:R:3 gdb_86712=T pbc="F F F"
C        0.09480000       1.59610000      -0.04200000
C        0.03910000       0.07180000       0.06420000
C        0.60810000      -0.65040000      -1.18480000
N        1.18340000      -1.89150000      -0.66870000
C        1.36940000      -2.99610000      -1.43060000
O        1.09450000      -3.07940000      -2.61170000
C        1.48690000      -1.77920000       0.73380000
C        2.32980000      -0.59460000       1.14630000
C        0.81760000      -0.53020000       1.23400000
H        1.12920000       1.94540000      -0.12840000
H       -0.45510000       1.95180000      -0.91960000
H       -0.34560000       2.06850000       0.84150000
H       -1.00690000      -0.23480000       0.18880000
H       -0.14270000      -0.88300000      -1.94230000
H        1.38000000      -0.03940000      -1.67160000
H        1.79460000      -3.83610000      -0.84510000
H        1.52120000      -2.71170000       1.28420000
H        2.87330000      -0.67280000       2.08160000
H        2.84710000      -0.03570000       0.37370000
H        0.36250000      -0.49840000       2.21740000
