12
Properties=species:S:1:pos:R:3 gdb_205=T pbc="F F F"
N        0.01530000       1.43320000       0.17120000
C        0.01310000       0.02770000       0.04720000
C       -1.08570000      -0.80500000       0.01280000
N       -0.62110000      -2.10580000      -0.02390000
C        0.74350000      -2.11020000      -0.02220000
C        1.17230000      -0.80230000       0.02420000
H        0.77820000       1.85510000      -0.34380000
H       -0.85140000       1.84660000      -0.14950000
H       -2.14090000      -0.58560000       0.02020000
H       -1.20370000      -2.92210000      -0.05960000
H        1.29990000      -3.03300000      -0.05390000
H        2.19880000      -0.46890000       0.04890000
