15
Properties=species:S:1:pos:R:3 gdb_47986=T pbc="F F F"
O       -0.70240000       0.77370000      -0.53570000
C        0.19580000       0.81580000       0.27400000
C        1.31010000       1.72530000       0.20620000
C        2.25590000       2.47820000       0.17250000
C        3.37750000       3.38260000       0.11830000
C        4.10480000       3.69330000      -1.23740000
C        2.87370000       4.48200000      -1.73700000
C        3.18700000       4.88890000      -0.27970000
O        4.62240000       4.93110000      -0.62160000
H        0.21900000       0.13440000       1.14840000
H        4.07720000       3.25640000       0.94650000
H        4.80640000       3.05820000      -1.77720000
H        3.09720000       5.24790000      -2.47890000
H        1.95200000       3.93430000      -1.93650000
H        2.78330000       5.69360000       0.33390000
