8
Properties=species:S:1:pos:R:3 gdb_21763=T pbc="F F F"
O       -0.16750000       1.27950000       0.01050000
N        1.25360000       1.79660000      -0.00040000
N        2.05150000       0.82570000      -0.01300000
C        1.33880000      -0.33340000      -0.01240000
C        0.01480000      -0.02220000       0.00180000
N       -0.69790000      -1.18130000       0.00240000
N        0.10000000      -2.15220000      -0.01040000
O        1.52110000      -1.63510000      -0.02110000
