13
Properties=species:S:1:pos:R:3 gdb_20476=T pbc="F F F"
C        0.89260000       0.98030000      -0.09090000
O       -0.02700000       0.20660000      -0.85590000
C       -0.44830000       0.66480000       0.43250000
C       -0.64940000      -0.38170000       1.45600000
N       -1.45750000      -0.16430000       2.46810000
O       -1.41640000      -1.32170000       3.23570000
C       -0.58800000      -2.20050000       2.65140000
C       -0.06220000      -1.67970000       1.51640000
H        1.75610000       0.44030000       0.29400000
H        1.09300000       1.98250000      -0.46650000
H       -1.20410000       1.44740000       0.42630000
H       -0.48080000      -3.14890000       3.15460000
H        0.61320000      -2.13580000       0.81340000
