23
Properties=species:S:1:pos:R:3 gdb_108832=T pbc="F F F"
C        0.03140000       1.57140000       0.23440000
C       -0.01220000       0.06030000      -0.05550000
C       -1.40330000      -0.50360000      -0.05980000
C       -2.05640000      -1.03590000      -1.09950000
C       -3.46660000      -1.48330000      -0.76170000
C       -3.80900000      -2.90940000      -1.21860000
C       -3.53270000      -1.25770000       0.75380000
C       -2.55660000      -1.98680000       1.64350000
C       -2.24650000      -0.57620000       1.17890000
H        1.06250000       1.93820000       0.23200000
H       -0.53100000       2.12920000      -0.52090000
H       -0.40170000       1.80480000       1.21230000
H        0.46150000      -0.13700000      -1.02360000
H        0.58980000      -0.46090000       0.70200000
H       -1.63370000      -1.16780000      -2.09110000
H       -4.18500000      -0.80470000      -1.24780000
H       -3.14300000      -3.64430000      -0.75580000
H       -4.83810000      -3.16980000      -0.95020000
H       -3.71290000      -3.00710000      -2.30530000
H       -4.48220000      -0.96930000       1.19020000
H       -2.85180000      -2.12300000       2.67910000
H       -1.95800000      -2.79420000       1.23430000
H       -2.22380000       0.22470000       1.91010000
