25
Properties=species:S:1:pos:R:3 gdb_108471=T pbc="F F F"
C       -0.02520000       1.53960000       0.17620000
C        0.03740000       0.01000000       0.07360000
C        0.66140000      -0.49050000      -1.21680000
C       -0.20360000      -0.34140000      -2.51190000
C       -0.17320000      -1.88520000      -2.72200000
C        0.82400000      -2.02240000      -1.54990000
C        2.30930000      -1.76590000      -1.92780000
C        2.20110000      -0.29880000      -1.40870000
C        2.75980000       0.82180000      -2.27580000
H        0.97690000       1.98090000       0.16120000
H       -0.58980000       1.97110000      -0.65750000
H       -0.51120000       1.85440000       1.10500000
H        0.60490000      -0.38900000       0.92560000
H       -0.97740000      -0.40170000       0.16550000
H       -1.20120000       0.06790000      -2.32920000
H        0.25060000       0.24510000      -3.31410000
H       -1.13950000      -2.35440000      -2.51740000
H        0.17830000      -2.24290000      -3.69480000
H        0.64150000      -2.80540000      -0.81090000
H        3.04360000      -2.38800000      -1.41000000
H        2.50330000      -1.84300000      -3.00350000
H        2.65590000      -0.23280000      -0.41250000
H        2.36820000       0.78070000      -3.29780000
H        2.52090000       1.80990000      -1.86770000
H        3.85120000       0.74670000      -2.34490000
