16
Properties=species:S:1:pos:R:3 gdb_13261=T pbc="F F F"
O        0.10210000       0.20600000      -0.66060000
C        0.19630000       1.38950000      -0.54330000
O        0.99840000       1.96990000       0.37080000
C        1.04900000       3.40040000       0.43000000
C        2.46770000       3.87700000       0.18020000
C        2.93580000       3.83590000      -1.29070000
O        2.85650000       5.27290000      -1.39870000
C        2.60270000       5.40760000       0.01310000
H       -0.35490000       2.12750000      -1.15920000
H        0.36110000       3.83410000      -0.30880000
H        0.70830000       3.69740000       1.42790000
H        3.14540000       3.41650000       0.90100000
H        3.95880000       3.46870000      -1.43790000
H        2.27290000       3.33000000      -2.00380000
H        1.70440000       6.00460000       0.21750000
H        3.45210000       5.85380000       0.54540000
