18
Properties=species:S:1:pos:R:3 gdb_115086=T pbc="F F F"
C       -0.09250000       1.37840000       0.16180000
O       -0.05100000      -0.01510000      -0.09290000
C       -1.32110000      -0.65280000      -0.08320000
C       -1.15970000      -2.01100000      -0.76990000
C       -0.50830000      -3.02530000       0.12970000
C       -0.62550000      -2.92030000       1.45240000
N       -1.32280000      -1.86320000       2.05090000
C       -1.78460000      -0.75660000       1.38120000
O       -2.43000000       0.11470000       1.93320000
H        0.93680000       1.73790000       0.09100000
H       -0.70810000       1.89970000      -0.58670000
H       -0.49330000       1.60870000       1.15600000
H       -2.06060000      -0.03230000      -0.60750000
H       -2.15010000      -2.36930000      -1.08810000
H       -0.57630000      -1.85310000      -1.68260000
H        0.03860000      -3.85540000      -0.29880000
H       -0.19980000      -3.63180000       2.14930000
H       -1.51620000      -1.88200000       3.04100000
