12
Properties=species:S:1:pos:R:3 gdb_3798=T pbc="F F F"
C        0.01390000       1.41640000      -0.04340000
O        0.00530000      -0.01670000      -0.00600000
C        0.58160000      -0.65330000      -1.01630000
C        0.72170000      -1.99300000      -1.24350000
C        1.41730000      -2.02010000      -2.47530000
N        1.68040000      -0.82840000      -2.95660000
O        1.13270000       0.06260000      -2.00210000
H        1.03820000       1.79940000      -0.04920000
H       -0.51470000       1.78590000      -0.92650000
H       -0.50090000       1.73330000       0.86310000
H        0.38130000      -2.80670000      -0.62860000
H        1.74350000      -2.88330000      -3.03960000
