21
Properties=species:S:1:pos:R:3 gdb_102755=T pbc="F F F"
C       -0.39510000       1.14970000       0.49940000
O       -0.02430000      -0.20460000       0.34500000
C        0.51330000      -0.50350000      -0.92590000
C        1.28030000      -1.83470000      -0.83900000
C        2.53130000      -1.75130000       0.00850000
C        2.45950000      -1.88500000       1.50700000
C        3.07310000      -2.98840000       0.68260000
C       -0.60390000      -0.63160000      -1.96010000
O       -0.43670000      -0.58520000      -3.15050000
H        0.47120000       1.81920000       0.38930000
H       -1.16160000       1.45910000      -0.22770000
H       -0.80430000       1.25950000       1.50610000
H        1.20170000       0.28830000      -1.26320000
H        0.60250000      -2.59620000      -0.43320000
H        1.53280000      -2.13800000      -1.86160000
H        3.27590000      -1.05660000      -0.37360000
H        3.11530000      -1.26770000       2.11110000
H        1.48280000      -2.05450000       1.94490000
H        2.51380000      -3.91180000       0.57120000
H        4.14820000      -3.12510000       0.71690000
H       -1.60600000      -0.81550000      -1.50580000
