20
Properties=species:S:1:pos:R:3 gdb_52582=T pbc="F F F"
C       -0.05530000       1.50970000       0.05070000
C       -0.00610000       0.05530000       0.02260000
C        0.02760000      -1.14720000       0.00690000
C        0.06190000      -2.61120000      -0.02370000
C       -1.30740000      -3.14280000       0.09670000
N       -2.37660000      -3.57230000       0.18150000
C        0.77670000      -3.18600000      -1.29340000
C        2.20980000      -2.65170000      -1.38030000
C        0.75310000      -4.71840000      -1.28920000
H        0.73660000       1.92140000       0.68550000
H        0.06760000       1.93060000      -0.95290000
H       -1.01520000       1.86110000       0.44410000
H        0.61790000      -2.97420000       0.85400000
H        0.21170000      -2.82410000      -2.16040000
H        2.80730000      -2.99300000      -0.52630000
H        2.69400000      -3.01790000      -2.29040000
H        2.23180000      -1.55960000      -1.39520000
H       -0.26640000      -5.11110000      -1.25510000
H        1.23480000      -5.10480000      -2.19220000
H        1.30000000      -5.11670000      -0.42610000
