19
Properties=species:S:1:pos:R:3 gdb_41215=T pbc="F F F"
C       -0.28620000       1.24040000      -0.07450000
C        1.26670000       1.24700000       0.30020000
C        1.44610000       0.10510000       1.31060000
C        1.24270000      -1.34880000       0.78690000
C       -0.22860000      -1.05900000       0.69340000
O       -0.88370000      -0.95970000       1.90030000
C        0.02540000      -0.75750000       3.03160000
C        1.00520000       0.29270000       2.56720000
C       -0.52830000      -0.24430000      -0.36310000
H       -0.86080000       1.60200000       0.78040000
H       -0.48660000       1.89430000      -0.92870000
H        1.86410000       1.11030000      -0.60770000
H        1.55160000       2.20080000       0.75450000
H        1.69950000      -1.49230000      -0.19090000
H        1.59520000      -2.11290000       1.48610000
H       -0.60010000      -0.40840000       3.85460000
H        0.46970000      -1.71560000       3.32170000
H        0.94900000       1.28360000       3.00830000
H       -0.01020000      -0.54950000      -1.27450000
