20
Properties=species:S:1:pos:R:3 gdb_118359=T pbc="F F F"
C       -0.06340000       1.42270000      -0.08090000
O        0.04400000       0.01920000      -0.00620000
C        0.68540000      -0.55080000      -1.12500000
C        0.66950000      -2.06590000      -0.93850000
C       -0.77190000      -2.55640000      -0.83110000
O       -1.08930000      -3.63830000      -0.40640000
C        1.43770000      -2.76790000      -2.05700000
C        1.31200000      -4.21890000      -2.32200000
N        0.79390000      -3.23980000      -3.29810000
H        0.92590000       1.90290000      -0.13110000
H       -0.64510000       1.74050000      -0.96000000
H       -0.57490000       1.75920000       0.82370000
H        0.16060000      -0.27550000      -2.05720000
H        1.72010000      -0.18310000      -1.21740000
H        1.15660000      -2.30350000       0.01570000
H       -1.54150000      -1.84080000      -1.19680000
H        2.40730000      -2.30800000      -2.24330000
H        2.18000000      -4.77940000      -2.65700000
H        0.60040000      -4.77730000      -1.72200000
H       -0.21960000      -3.19000000      -3.21780000
