16
Properties=species:S:1:pos:R:3 gdb_16351=T pbc="F F F"
C       -0.51750000       1.38650000       0.01050000
C        0.07060000      -0.01660000      -0.03400000
C        1.41100000      -0.23080000      -0.81410000
C        1.97010000      -0.99020000       0.40850000
O        2.93120000      -1.67100000       0.61410000
C        0.76320000      -0.56260000       1.23290000
C        0.77850000      -0.04000000       2.61090000
O        0.16520000      -1.28540000       2.28700000
H        0.22860000       2.11740000       0.34140000
H       -0.87300000       1.69460000      -0.97790000
H       -1.36830000       1.43680000       0.69810000
H       -0.68280000      -0.73640000      -0.37000000
H        1.36400000      -0.80870000      -1.73970000
H        1.96130000       0.69640000      -1.00630000
H        1.69500000      -0.10680000       3.19470000
H        0.09640000       0.76590000       2.87700000
