17
Properties=species:S:1:pos:R:3 gdb_51777=T pbc="F F F"
O       -0.12250000      -0.00240000      -0.23280000
C        0.04070000       1.18840000      -0.15230000
C        1.39730000       1.86590000      -0.13660000
C        1.50620000       2.87440000      -1.27810000
O        0.52750000       3.93820000      -1.16100000
C        1.52590000       4.96660000      -1.27130000
C        2.66050000       3.91230000      -1.32460000
C        3.69300000       3.99360000      -0.22880000
O        4.04810000       3.08520000       0.47650000
H       -0.82240000       1.88510000      -0.08260000
H        1.50990000       2.38860000       0.81990000
H        2.18060000       1.10870000      -0.21230000
H        1.38650000       2.35360000      -2.23750000
H        1.40230000       5.57090000      -2.17720000
H        1.53270000       5.63170000      -0.39810000
H        3.20950000       3.91720000      -2.27300000
H        4.14130000       5.01000000      -0.12310000
