25
Properties=species:S:1:pos:R:3 gdb_109377=T pbc="F F F"
C       -0.28510000       1.52230000      -0.04710000
C        0.12410000       0.04380000       0.08200000
C        0.77640000      -0.51650000      -1.16410000
C        2.05850000      -0.89730000      -1.13930000
C        2.84480000      -1.38860000      -2.32550000
C        2.13490000      -1.06790000      -3.64550000
C        0.64840000      -1.40880000      -3.53580000
C       -0.05740000      -0.58910000      -2.44010000
C       -1.47150000      -1.14770000      -2.19980000
H        0.58380000       2.14650000      -0.27940000
H       -1.02360000       1.67280000      -0.84100000
H       -0.72510000       1.88660000       0.88660000
H        0.82120000      -0.06060000       0.92060000
H       -0.76360000      -0.54480000       0.34680000
H        2.59970000      -0.83700000      -0.19600000
H        3.84760000      -0.94260000      -2.31050000
H        3.00910000      -2.47400000      -2.24020000
H        2.24730000       0.00130000      -3.86810000
H        2.59850000      -1.61380000      -4.47440000
H        0.13870000      -1.24800000      -4.49310000
H        0.54190000      -2.47780000      -3.30260000
H       -0.17770000       0.43890000      -2.81760000
H       -1.42710000      -2.14640000      -1.75110000
H       -2.06730000      -0.50980000      -1.54150000
H       -2.00900000      -1.23260000      -3.15020000
