21
Properties=species:S:1:pos:R:3 gdb_83375=T pbc="F F F"
C       -0.12140000       1.62470000       0.04860000
C        0.04560000       0.11390000       0.07940000
C        1.12060000      -0.61400000      -0.76170000
C        2.43580000       0.03350000      -0.19860000
C        2.13470000       0.08520000       1.36280000
C        0.79400000      -0.62340000       1.26960000
C       -0.12080000      -1.61750000       1.98650000
O       -0.18150000      -2.40850000       0.75530000
C        1.03620000      -1.76380000       0.27010000
H        0.81360000       2.17160000       0.19610000
H       -0.53620000       1.94120000      -0.91520000
H       -0.82090000       1.95260000       0.82600000
H       -0.92320000      -0.36500000      -0.06760000
H        1.06910000      -0.72290000      -1.84740000
H        3.31640000      -0.57770000      -0.41750000
H        2.60690000       1.02350000      -0.62680000
H        2.87460000      -0.47610000       1.93960000
H        2.10120000       1.10590000       1.75230000
H        0.35550000      -2.19020000       2.79390000
H       -1.11220000      -1.27760000       2.30350000
H        1.88750000      -2.44940000       0.34520000
