20
Properties=species:S:1:pos:R:3 gdb_107788=T pbc="F F F"
C       -0.05600000       1.57640000       0.03230000
C        0.09340000       0.06740000       0.08380000
N        1.10730000      -0.56890000      -0.82980000
C        2.38060000      -0.62890000      -0.01860000
C        2.15400000      -0.03530000       1.37020000
C        0.73770000      -0.67040000       1.28330000
C       -0.04160000      -1.02980000       2.51540000
O       -0.37220000       0.18550000       3.17870000
C        1.31840000      -1.64190000       0.17770000
H        0.89870000       2.09310000       0.15720000
H       -0.47340000       1.87990000      -0.93330000
H       -0.73150000       1.90970000       0.82620000
H       -0.86580000      -0.40790000      -0.15540000
H        3.29750000      -0.70260000      -0.58830000
H        2.76880000      -0.55740000       2.10930000
H        2.23280000       1.04340000       1.52570000
H       -0.94900000      -1.58770000       2.23000000
H        0.55800000      -1.68940000       3.16410000
H       -0.88520000      -0.02870000       3.96350000
H        1.24080000      -2.70190000      -0.02660000
