23
Properties=species:S:1:pos:R:3 gdb_118763=T pbc="F F F"
C        0.31770000       1.41920000      -0.32320000
O        0.14500000       0.05470000      -0.03060000
C       -1.16760000      -0.40450000      -0.27650000
C       -1.24490000      -1.88780000       0.05280000
C       -0.29990000      -2.69570000      -0.84080000
C       -1.10490000      -2.24880000       1.56620000
C       -2.31790000      -3.20270000       1.41440000
O       -3.26320000      -3.30880000       2.44910000
C       -2.69240000      -2.47180000       0.09620000
H        1.35620000       1.67500000      -0.09830000
H        0.11940000       1.63900000      -1.38450000
H       -0.34440000       2.05590000       0.28550000
H       -1.88820000       0.16020000       0.34120000
H       -1.44320000      -0.23320000      -1.33330000
H        0.72770000      -2.34180000      -0.72450000
H       -0.32630000      -3.76210000      -0.59560000
H       -0.57780000      -2.59040000      -1.89610000
H       -0.15620000      -2.67010000       1.90670000
H       -1.35530000      -1.39430000       2.20520000
H       -1.99530000      -4.22850000       1.21750000
H       -3.55460000      -2.41940000       2.67630000
H       -3.43870000      -1.69070000       0.28590000
H       -3.02620000      -3.07540000      -0.75180000
