17
Properties=species:S:1:pos:R:3 gdb_42110=T pbc="F F F"
C        0.05620000       1.43130000       0.06510000
O        1.39480000       1.83590000      -0.05080000
C        2.33850000       1.41780000       0.94360000
C        2.29690000       2.13850000       2.27830000
C        1.51840000       1.74560000       3.30540000
C        0.58820000       0.70850000       3.04830000
C       -0.09880000      -0.08010000       2.43870000
C       -0.74240000      -0.55810000       1.21410000
O       -0.10770000       0.02200000       0.06920000
H       -0.42650000       1.87260000       0.94550000
H       -0.41180000       1.81430000      -0.84790000
H        2.23420000       0.34060000       1.11030000
H        3.30840000       1.59910000       0.47290000
H        2.96270000       2.98640000       2.41560000
H        1.54900000       2.24580000       4.26780000
H       -0.65150000      -1.64000000       1.07970000
H       -1.81680000      -0.32090000       1.22890000
