19
Properties=species:S:1:pos:R:3 gdb_92572=T pbc="F F F"
C        0.45670000       1.36630000       0.13150000
C       -0.09800000      -0.03190000      -0.09640000
C        0.55910000      -0.78850000      -1.28170000
N        1.61050000      -1.49550000      -0.57760000
C        2.24630000      -2.74970000      -0.97300000
C        2.57400000      -3.34100000       0.43690000
N        1.61260000      -2.71940000       1.37300000
C        1.14770000      -1.73770000       0.71690000
O        0.18890000      -0.86560000       1.06240000
H        1.54920000       1.34290000       0.18080000
H        0.15700000       2.02960000      -0.68620000
H        0.07310000       1.77780000       1.06850000
H       -1.18620000      -0.00260000      -0.19220000
H       -0.15280000      -1.47610000      -1.76750000
H        0.94670000      -0.09950000      -2.03780000
H        1.53940000      -3.39040000      -1.52520000
H        3.13030000      -2.59000000      -1.59540000
H        2.48510000      -4.43040000       0.45800000
H        3.60150000      -3.08930000       0.73170000
