18
Properties=species:S:1:pos:R:3 gdb_55637=T pbc="F F F"
C       -0.03780000       1.49100000      -0.21880000
C       -0.03350000       0.01750000       0.10730000
O       -0.08300000      -0.45410000       1.21410000
O        0.03500000      -0.70300000      -1.03980000
C        0.05320000      -2.15830000      -0.99260000
C        1.30640000      -2.68220000      -0.27330000
C       -1.25100000      -2.71840000      -0.40310000
C        0.13100000      -2.53160000      -2.42130000
N        0.19170000      -2.86920000      -3.52380000
H        0.86820000       1.75460000      -0.77150000
H       -0.89000000       1.72960000      -0.86110000
H       -0.09300000       2.06410000       0.70570000
H        1.24970000      -2.43980000       0.78700000
H        1.36970000      -3.76640000      -0.39610000
H        2.20410000      -2.23300000      -0.70460000
H       -2.11280000      -2.29420000      -0.92370000
H       -1.27080000      -3.80380000      -0.53010000
H       -1.30880000      -2.47610000       0.65720000
