27
Properties=species:S:1:pos:R:3 gdb_100102=T pbc="F F F"
C       -0.50930000       0.92030000      -0.01550000
C        0.06290000      -0.49910000       0.03080000
C        0.94840000      -0.89530000      -1.16960000
C        1.47590000      -2.32330000      -0.94800000
C        0.16450000      -0.81750000      -2.49160000
O        2.01940000       0.05880000      -1.13790000
C        3.05920000      -0.00640000      -2.11490000
C        3.07130000       1.30460000      -2.90290000
C        4.38710000      -0.25630000      -1.39760000
H        0.29140000       1.65020000      -0.15500000
H       -1.23130000       1.04680000      -0.82830000
H       -1.02780000       1.15340000       0.91980000
H        0.67650000      -0.60790000       0.93260000
H       -0.75030000      -1.23050000       0.11350000
H        0.64610000      -3.03590000      -0.90140000
H        2.13630000      -2.64330000      -1.75970000
H        2.03230000      -2.38230000      -0.00800000
H       -0.16410000       0.20470000      -2.69350000
H        0.76950000      -1.15320000      -3.33920000
H       -0.72010000      -1.46110000      -2.44830000
H        2.87630000      -0.83320000      -2.81290000
H        3.87820000       1.31050000      -3.64340000
H        2.12240000       1.45360000      -3.42510000
H        3.22130000       2.14970000      -2.22330000
H        4.36780000      -1.21010000      -0.86360000
H        5.22030000      -0.27420000      -2.10810000
H        4.57310000       0.53790000      -0.66740000
