17
Properties=species:S:1:pos:R:3 gdb_53251=T pbc="F F F"
C       -0.04400000       1.44030000       0.04340000
C       -0.02610000      -0.01530000       0.05330000
C        0.01300000      -1.22060000       0.06190000
C        0.03030000      -2.65070000       0.05790000
C       -0.45530000      -3.43100000       1.26630000
C       -1.34130000      -3.39740000       0.05150000
N       -2.59850000      -2.70220000       0.11680000
C       -1.38510000      -4.58350000      -0.77200000
N       -1.39640000      -5.51900000      -1.45200000
H        0.94970000       1.84140000      -0.18380000
H       -0.73770000       1.82870000      -0.71040000
H       -0.34820000       1.84270000       1.01590000
H        0.81970000      -3.11910000      -0.52200000
H        0.05120000      -4.35770000       1.50690000
H       -0.79940000      -2.86200000       2.12300000
H       -2.50240000      -1.88700000       0.71440000
H       -2.84810000      -2.35430000      -0.80550000
