19
Properties=species:S:1:pos:R:3 gdb_105386=T pbc="F F F"
C        2.07400000       0.58120000      -0.77040000
C        1.11750000      -0.47880000      -0.26860000
C        1.60350000      -1.75480000       0.38490000
C        0.83000000      -0.73330000       1.18520000
C        1.47750000       0.05350000       2.29430000
O        1.56360000      -0.78470000       3.44010000
O       -0.53680000      -1.00730000       1.45570000
C       -0.81420000      -2.05170000       2.27710000
O       -1.92860000      -2.28590000       2.63800000
H        2.98880000       0.62700000      -0.17280000
H        2.37150000       0.36090000      -1.80090000
H        1.61430000       1.57530000      -0.76240000
H        0.22890000      -0.60460000      -0.88110000
H        1.10770000      -2.68460000       0.13150000
H        2.66330000      -1.85170000       0.59810000
H        2.47340000       0.39370000       1.98030000
H        0.86300000       0.94170000       2.49760000
H        1.62310000      -0.22910000       4.22230000
H        0.07820000      -2.63740000       2.54420000
