20
Properties=species:S:1:pos:R:3 gdb_22916=T pbc="F F F"
C        0.18450000       1.60990000       0.01020000
C        0.01170000       0.08060000       0.04770000
C        0.66870000      -0.63160000      -1.16160000
C        2.12670000      -0.87440000      -0.72900000
C        2.02940000      -1.23650000       0.76000000
O        3.19200000      -0.82700000       1.45040000
C        0.75460000      -0.53150000       1.22050000
N        0.31100000      -0.44190000       2.40910000
O        1.17190000      -1.10710000       3.32390000
H        1.23950000       1.89350000      -0.05900000
H       -0.33830000       2.03170000      -0.85450000
H       -0.22380000       2.06210000       0.91780000
H       -1.05690000      -0.14300000       0.11620000
H        0.16820000      -1.58950000      -1.34440000
H        0.59140000      -0.04530000      -2.08130000
H        2.63040000      -1.64370000      -1.31840000
H        2.71760000       0.04370000      -0.80950000
H        1.86740000      -2.32230000       0.87670000
H        2.99950000      -0.94240000       2.38940000
H        0.74830000      -0.93030000       4.16980000
