15
Properties=species:S:1:pos:R:3 gdb_124051=T pbc="F F F"
C        0.15120000       1.52220000      -0.14620000
O        1.54100000       1.45690000       0.24340000
C        1.48690000       0.02580000       0.43560000
C       -0.03340000      -0.00260000       0.02150000
N        0.41140000      -0.80250000      -1.12240000
N        0.09620000      -1.17810000      -2.36780000
C        1.30840000      -1.46260000      -2.87570000
C        2.38570000      -1.20230000      -1.98350000
C        1.73440000      -0.76760000      -0.84520000
H       -0.42740000       2.11280000       0.57250000
H        0.00580000       1.91170000      -1.15830000
H        1.90860000      -0.29290000       1.38810000
H       -0.86980000      -0.39380000       0.59720000
H        1.37470000      -1.86850000      -3.87550000
H        3.43810000      -1.33260000      -2.17030000
