21
Properties=species:S:1:pos:R:3 gdb_41506=T pbc="F F F"
C       -0.00520000       1.57540000      -0.11920000
C        1.55520000       1.52400000      -0.08510000
C        1.43910000       0.10570000       0.45060000
C        2.24360000      -0.69100000       1.13870000
C        1.92780000      -2.06330000       1.67120000
C        0.52120000      -2.60790000       1.64700000
C       -0.66180000      -2.01910000       1.45650000
C       -0.95940000      -0.56970000       1.15440000
C       -0.03410000       0.02830000       0.09670000
H       -0.41800000       2.11330000       0.73890000
H       -0.46940000       1.95860000      -1.03040000
H        1.99440000       1.56670000      -1.08860000
H        2.07030000       2.25770000       0.54160000
H        3.26100000      -0.35450000       1.33790000
H        2.57530000      -2.78700000       1.14900000
H        2.28130000      -2.12110000       2.71470000
H        0.49460000      -3.67470000       1.86850000
H       -1.53650000      -2.66190000       1.53650000
H       -2.00300000      -0.47390000       0.83070000
H       -0.87240000       0.02760000       2.07300000
H       -0.18800000      -0.49430000      -0.85580000
