20
Properties=species:S:1:pos:R:3 gdb_57367=T pbc="F F F"
C        0.27530000       1.53130000       0.16830000
C        0.04720000       0.01790000       0.03150000
C        0.46840000      -0.69590000       1.32430000
O       -1.33280000      -0.25670000      -0.22790000
C        0.76530000      -0.50920000      -1.22550000
C        2.20570000      -1.00120000      -1.19660000
C        1.09380000      -1.98340000      -1.40700000
C        0.37380000       0.17620000      -2.43700000
N        0.08790000       0.72430000      -3.41490000
H        1.33490000       1.75890000       0.31970000
H       -0.06950000       2.05680000      -0.72520000
H       -0.27460000       1.91810000       1.03390000
H       -0.11890000      -0.28890000       2.15380000
H        0.26310000      -1.76740000       1.27590000
H        1.52300000      -0.54040000       1.56820000
H       -1.86120000       0.26850000       0.38230000
H        2.83310000      -0.73940000      -2.04000000
H        2.71250000      -0.99500000      -0.23950000
H        0.83210000      -2.65240000      -0.59740000
H        0.95180000      -2.39830000      -2.39730000
