20
Properties=species:S:1:pos:R:3 gdb_52547=T pbc="F F F"
C        0.34300000       1.38810000       0.34790000
C        0.17000000      -0.04030000       0.14380000
C        0.01590000      -1.22200000      -0.02800000
C       -0.16910000      -2.63070000      -0.23530000
N       -1.29720000      -3.08640000      -0.60970000
O        0.98980000      -3.29500000       0.03440000
C        1.04520000      -4.72430000      -0.12530000
C        1.24580000      -5.08800000      -1.59630000
C        2.18940000      -5.19750000       0.76220000
H        1.34260000       1.61790000       0.73160000
H        0.20810000       1.93690000      -0.59060000
H       -0.39030000       1.77310000       1.06490000
H       -1.29240000      -4.09850000      -0.72270000
H        0.10570000      -5.15650000       0.24530000
H        0.43490000      -4.70250000      -2.21920000
H        2.18740000      -4.66660000      -1.96130000
H        1.28350000      -6.17520000      -1.71580000
H        2.01420000      -4.91040000       1.80200000
H        2.28260000      -6.28620000       0.71100000
H        3.13430000      -4.75260000       0.43620000
