21
Properties=species:S:1:pos:R:3 gdb_100541=T pbc="F F F"
C        0.87150000       1.08220000       1.58990000
O        1.11190000      -0.13190000       0.90970000
C        0.05330000      -1.06910000       0.97490000
C       -1.15470000      -0.69320000       0.11360000
C        0.61220000      -2.43870000       0.57450000
O       -0.13110000      -3.32780000       0.21430000
C        2.11300000      -2.70810000       0.66810000
C        2.59170000      -2.64340000       2.13010000
O        2.39670000      -3.96520000       0.10840000
H        0.60380000       0.90730000       2.64330000
H        1.79940000       1.65710000       1.55140000
H        0.07330000       1.67320000       1.12150000
H       -0.27450000      -1.17980000       2.02580000
H       -1.66020000       0.19320000       0.50400000
H       -0.83460000      -0.49170000      -0.91280000
H       -1.86280000      -1.52350000       0.10110000
H        2.62690000      -1.92200000       0.09840000
H        3.64960000      -2.91490000       2.16070000
H        2.47270000      -1.63920000       2.54240000
H        2.04020000      -3.36080000       2.74590000
H        1.53290000      -4.37350000      -0.06070000
