20
Properties=species:S:1:pos:R:3 gdb_117409=T pbc="F F F"
C        0.30190000       1.50250000      -0.06390000
C        0.52750000      -0.00970000      -0.01480000
C        0.24320000      -0.60770000       1.36770000
C        0.31890000      -2.13130000       1.36010000
O       -0.07660000      -2.80360000       0.42340000
N        0.83710000      -2.69040000       2.49530000
C        0.99630000      -4.13070000       2.63720000
C        2.33490000      -4.49870000       3.08810000
C        3.43080000      -4.78870000       3.48600000
H        0.94950000       2.02970000       0.64600000
H        0.51240000       1.89950000      -1.06160000
H       -0.73480000       1.75750000       0.18360000
H       -0.11130000      -0.51960000      -0.74160000
H        1.56040000      -0.24160000      -0.30150000
H        0.91920000      -0.18650000       2.12210000
H       -0.77550000      -0.33910000       1.67960000
H        1.20490000      -2.09830000       3.22130000
H        0.24970000      -4.53890000       3.33270000
H        0.77880000      -4.55480000       1.65150000
H        4.40190000      -5.05700000       3.82180000
