19
Properties=species:S:1:pos:R:3 gdb_84042=T pbc="F F F"
O       -0.04080000       1.42370000      -0.11780000
C       -0.04120000       0.03750000       0.00860000
C       -1.36770000      -0.71700000       0.08990000
C       -2.67500000       0.04960000       0.07830000
O       -3.58910000      -0.38370000      -0.92500000
C       -3.34030000       0.15730000      -2.20330000
C       -2.09720000      -0.39560000      -2.89670000
O       -0.88210000       0.01170000      -2.26510000
C       -0.51410000      -0.76780000      -1.16400000
H       -0.22210000       1.60890000      -1.04960000
H        0.79200000      -0.32830000       0.60160000
H       -1.36270000      -1.62820000       0.68110000
H       -3.19050000      -0.09780000       1.03150000
H       -2.47420000       1.12390000      -0.03000000
H       -4.21680000      -0.08330000      -2.81710000
H       -3.25550000       1.25570000      -2.14880000
H       -2.14660000      -1.49150000      -2.94290000
H       -2.05370000      -0.00570000      -3.92020000
H       -0.02060000      -1.70310000      -1.42540000
