17
Properties=species:S:1:pos:R:3 gdb_81534=T pbc="F F F"
C       -0.09370000       1.59490000      -0.03450000
C       -0.02600000       0.08040000      -0.01220000
C        1.23470000      -0.62250000      -0.59490000
O        2.02520000      -0.14700000       0.55870000
C        0.75210000      -0.61850000       1.14060000
C        0.88410000      -1.90610000       0.24510000
O       -0.24200000      -2.63950000      -0.06690000
C        2.04230000      -2.81510000       0.57030000
O        1.89710000      -4.01760000       0.53440000
H        0.87100000       2.03130000       0.23250000
H       -0.37630000       1.95390000      -1.02970000
H       -0.84880000       1.95780000       0.67080000
H       -0.97120000      -0.39830000      -0.27380000
H        1.68990000      -0.54950000      -1.58360000
H        0.63180000      -0.54080000       2.22210000
H        0.03100000      -3.56990000       0.01380000
H        2.99800000      -2.33890000       0.83450000
