15
Properties=species:S:1:pos:R:3 gdb_98048=T pbc="F F F"
O        0.21890000       1.34000000       0.30830000
C        0.07640000      -0.04450000       0.24220000
C       -1.35080000      -0.42980000      -0.12320000
O       -2.18450000       0.43700000      -0.30800000
C       -1.63880000      -1.83680000      -0.23040000
C       -1.83470000      -3.02500000      -0.31810000
C       -2.15120000      -4.43810000      -0.40720000
C       -3.59500000      -4.74980000       0.01740000
O       -3.89730000      -5.74570000       0.61130000
H       -0.66010000       1.69820000       0.10400000
H        0.75170000      -0.48820000      -0.50800000
H        0.32260000      -0.52710000       1.20260000
H       -2.05370000      -4.76680000      -1.45330000
H       -1.47140000      -5.05660000       0.18710000
H       -4.33980000      -3.98570000      -0.28850000
