13
Properties=species:S:1:pos:R:3 gdb_25377=T pbc="F F F"
O        0.07540000      -0.05610000      -0.00200000
C        0.06040000       1.15090000       0.00860000
C        1.24490000       2.00900000       0.00200000
C        1.34740000       3.38120000       0.01270000
C        2.73170000       3.67100000      -0.00120000
C        3.37570000       2.45510000      -0.01940000
O        2.47520000       1.44390000      -0.01740000
C        4.80480000       2.14410000      -0.03910000
O        5.27500000       1.03240000      -0.05410000
H       -0.88570000       1.73360000       0.02480000
H        0.52480000       4.07940000       0.02860000
H        3.20550000       4.64050000       0.00150000
H        5.43800000       3.05730000      -0.03860000
