19
Properties=species:S:1:pos:R:3 gdb_70487=T pbc="F F F"
O       -0.06320000       1.40000000      -0.02940000
C       -0.07510000       0.01660000       0.00300000
C       -0.41700000      -0.81770000      -1.19880000
C       -1.27980000      -0.91720000       0.03970000
C       -0.57920000      -1.80670000       1.07330000
C        0.62310000      -0.79710000       1.10200000
C        2.05160000      -1.30260000       0.86060000
C        2.55470000      -2.11600000       2.03020000
O        2.87630000      -3.27550000       1.98030000
H        0.55710000       1.68640000      -0.70790000
H       -0.86080000      -0.24710000      -2.00900000
H        0.19460000      -1.65780000      -1.52090000
H       -2.33430000      -0.67350000       0.01830000
H       -1.09810000      -1.87650000       2.03110000
H       -0.33600000      -2.81800000       0.73110000
H        0.59000000      -0.21810000       2.03110000
H        2.11830000      -1.91530000      -0.04290000
H        2.71590000      -0.43350000       0.74540000
H        2.59430000      -1.55360000       2.99370000
