20
Properties=species:S:1:pos:R:3 gdb_89420=T pbc="F F F"
C       -0.03380000       1.51300000       0.02900000
C        0.00790000      -0.00010000       0.03570000
C       -1.22730000      -0.67950000      -0.53620000
C       -1.22190000      -2.21150000      -0.45500000
O       -0.37860000      -2.67710000      -1.53260000
C       -0.73710000      -2.70960000       0.88230000
C        0.15620000      -2.01820000       1.59710000
C        0.70890000      -0.72070000       1.14920000
N        1.32920000      -0.58320000      -0.20090000
H        0.88720000       1.92140000       0.45210000
H       -0.12820000       1.89230000      -0.99510000
H       -0.88420000       1.88980000       0.60830000
H       -2.10960000      -0.30870000      -0.00020000
H       -1.35290000      -0.39990000      -1.58890000
H       -2.24440000      -2.57330000      -0.63470000
H       -0.20090000      -3.61170000      -1.38100000
H       -1.11690000      -3.66230000       1.24130000
H        0.50020000      -2.39670000       2.55630000
H        1.22050000      -0.13650000       1.90950000
H        1.22220000      -1.46060000      -0.70830000
