16
Properties=species:S:1:pos:R:3 gdb_1525=T pbc="F F F"
C        0.01560000       1.49190000       0.13080000
C        0.05820000      -0.01720000      -0.01040000
O        0.68830000      -0.54990000       1.17350000
C        0.81420000      -1.88810000       1.22540000
O        0.43880000      -2.63920000       0.35960000
C        1.49330000      -2.32340000       2.52250000
N        1.67620000      -3.75580000       2.67340000
H        1.02420000       1.90410000       0.22450000
H       -0.45720000       1.93400000      -0.75120000
H       -0.55910000       1.78560000       1.01370000
H       -0.94300000      -0.44980000      -0.10260000
H        0.63190000      -0.33190000      -0.88780000
H        2.46230000      -1.81410000       2.58260000
H        0.90340000      -1.93140000       3.35940000
H        0.77170000      -4.21300000       2.59560000
H        2.20740000      -4.10510000       1.88020000
