17
Properties=species:S:1:pos:R:3 gdb_125858=T pbc="F F F"
C       -0.07760000       1.56970000       0.05060000
C        0.02080000       0.03440000       0.03540000
C        0.80450000      -0.52240000      -1.15270000
C        1.85300000      -1.28080000      -0.77490000
C        1.89280000      -1.32680000       0.68160000
C        2.52940000      -1.79220000       1.80960000
N        1.81660000      -1.28270000       2.86030000
N        0.75650000      -0.51670000       2.49190000
C        0.81350000      -0.55290000       1.17300000
H        0.91900000       2.02040000       0.05320000
H       -0.61700000       1.93450000      -0.82920000
H       -0.60840000       1.90910000       0.94450000
H       -0.99900000      -0.37670000       0.02480000
H        0.52310000      -0.30400000      -2.17590000
H        2.54780000      -1.77470000      -1.44220000
H        3.39210000      -2.41830000       1.97260000
H        1.99660000      -1.41760000       3.84030000
