21
Properties=species:S:1:pos:R:3 gdb_108259=T pbc="F F F"
C       -0.13100000       1.38200000      -0.04320000
O       -0.10590000      -0.03040000      -0.06460000
C        0.64990000      -0.56110000      -1.10520000
C        2.20540000      -0.48900000      -0.96510000
C        2.28560000      -2.04870000      -0.97540000
C        0.77120000      -2.11730000      -1.27990000
O       -0.03310000      -2.97400000      -0.52640000
C        0.40670000      -1.94050000      -2.78700000
C        0.12830000      -0.42110000      -2.55690000
H        0.87440000       1.81050000       0.08380000
H       -0.57000000       1.79870000      -0.96170000
H       -0.74880000       1.67870000       0.80750000
H        2.72450000       0.01380000      -1.78510000
H        2.52270000      -0.04320000      -0.02030000
H        2.96010000      -2.50720000      -1.70450000
H        2.50070000      -2.45320000       0.01660000
H        0.13680000      -3.87720000      -0.81740000
H        1.21340000      -2.16900000      -3.48890000
H       -0.48150000      -2.51000000      -3.06850000
H       -0.94140000      -0.19750000      -2.57150000
H        0.65040000       0.28250000      -3.21060000
