17
Properties=species:S:1:pos:R:3 gdb_61484=T pbc="F F F"
C       -1.44250000       0.50060000       0.72730000
C       -0.03590000       0.26460000       0.17990000
O        0.73910000      -0.27020000       1.23850000
C        2.11540000      -0.51330000       0.94870000
C        2.96130000       0.76650000       0.94850000
C        2.59130000      -1.45010000       1.97860000
N        3.00380000      -2.17370000       2.77800000
C       -0.05670000      -0.64880000      -0.98530000
N       -0.05080000      -1.35780000      -1.89790000
H       -1.38360000       1.19320000       1.56950000
H       -2.08470000       0.92720000      -0.04650000
H       -1.87350000      -0.44160000       1.07150000
H        0.38510000       1.21860000      -0.16970000
H        2.20700000      -1.02240000      -0.02200000
H        4.01410000       0.51860000       0.79080000
H        2.64760000       1.43360000       0.14160000
H        2.85860000       1.28530000       1.90420000
