14
Properties=species:S:1:pos:R:3 gdb_48667=T pbc="F F F"
O       -0.18950000       0.04620000       0.23450000
C       -0.03170000       1.20490000      -0.05800000
C        1.28110000       1.88160000      -0.09280000
N        1.35100000       3.34100000       0.23780000
C        1.60650000       2.90210000      -1.13810000
C        3.09920000       2.71960000      -1.43230000
O        3.72170000       3.30500000      -2.28180000
C        3.57920000       1.66230000      -0.49930000
C        2.56200000       1.17190000       0.21990000
H       -0.88860000       1.86840000      -0.32200000
H        0.40370000       3.72400000       0.29050000
H        0.92880000       3.17930000      -1.93790000
H        4.61950000       1.37090000      -0.44450000
H        2.60820000       0.38410000       0.96050000
