13
Properties=species:S:1:pos:R:3 gdb_1414=T pbc="F F F"
C        0.15890000       1.74190000       0.18410000
C        0.05690000       0.22370000      -0.03980000
N        0.68830000      -0.20580000      -1.27980000
C       -0.04520000      -0.66870000      -2.33380000
O       -1.25360000      -0.74110000      -2.35340000
C        0.62620000      -0.51570000       1.09900000
N        1.09750000      -1.07410000       1.99390000
H        1.20370000       2.05890000       0.24670000
H       -0.32030000       2.25950000      -0.64980000
H       -0.34190000       2.02460000       1.11360000
H       -0.99580000      -0.05940000      -0.14470000
H        1.69450000      -0.19970000      -1.34250000
H        0.59850000      -0.96710000      -3.18230000
