21
Properties=species:S:1:pos:R:3 gdb_57648=T pbc="F F F"
C       -0.36700000       1.53690000      -0.19230000
C       -0.06090000       0.04690000       0.04610000
C        0.94070000      -0.14230000       1.19210000
O       -1.24420000      -0.73960000       0.21440000
C       -2.05100000      -0.46900000       1.32070000
C       -3.22450000       0.47060000       1.18740000
C       -3.43590000      -1.02800000       1.25950000
C        0.53470000      -0.51060000      -1.25230000
O        1.65550000      -0.29090000      -1.62830000
H        0.55940000       2.06340000      -0.43660000
H       -1.06870000       1.66410000      -1.02200000
H       -0.80370000       1.98870000       0.70160000
H        0.63070000       0.39850000       2.09050000
H        1.04300000      -1.20340000       1.43640000
H        1.91610000       0.23670000       0.87850000
H       -1.53720000      -0.50340000       2.27920000
H       -3.50100000       1.08300000       2.03910000
H       -3.37240000       0.93960000       0.22180000
H       -3.70870000      -1.53150000       0.33900000
H       -3.86090000      -1.45940000       2.15850000
H       -0.18230000      -1.12820000      -1.83540000
