17
Properties=species:S:1:pos:R:3 gdb_6497=T pbc="F F F"
N       -0.43440000       0.96700000      -0.34120000
H        0.11380000       0.11440000      -0.30980000
H        0.39950000       2.53110000      -0.66170000
H       -1.25590000       0.78190000      -0.91170000
C       -0.81850000       1.40730000       0.99740000
C       -1.23740000       2.86920000       1.00740000
C       -0.14750000       3.86450000       0.58040000
O        0.64120000       3.46130000      -0.42470000
O       -0.02890000       4.94670000       1.09200000
C       -1.47280000       0.44710000       1.96170000
C       -0.02800000       0.86500000       2.15350000
H       -2.09190000       3.00810000       0.32920000
H       -1.57350000       3.17030000       2.00080000
H       -2.21630000       0.82790000       2.65370000
H       -1.66060000      -0.56350000       1.61360000
H        0.74570000       0.13170000       1.94810000
H        0.21250000       1.54010000       2.96700000
