18
Properties=species:S:1:pos:R:3 gdb_94779=T pbc="F F F"
O       -0.18410000       1.37760000       0.64220000
C        0.01240000       0.12800000       0.01400000
C        0.91200000      -0.84410000       0.82300000
C       -0.02960000      -1.76340000       1.64190000
C       -1.33790000      -1.75410000       0.86560000
N       -2.14060000      -0.51820000       1.05120000
C       -1.31650000      -0.63590000      -0.14520000
C       -2.06430000      -2.99910000       0.52880000
O       -1.68780000      -4.11390000       0.78880000
H       -0.88050000       1.23640000       1.29900000
H        0.45110000       0.34360000      -0.96470000
H        1.48530000      -1.45800000       0.11920000
H        1.62500000      -0.28660000       1.43420000
H        0.34750000      -2.78480000       1.72470000
H       -0.19710000      -1.38490000       2.65410000
H       -3.12210000      -0.68670000       0.83300000
H       -1.79960000      -0.72650000      -1.11320000
H       -3.02540000      -2.82030000      -0.01380000
