17
Properties=species:S:1:pos:R:3 gdb_62273=T pbc="F F F"
C        0.02470000       1.53540000       0.03100000
C        0.03700000       0.00740000      -0.01740000
C       -1.28950000      -0.56090000       0.17630000
C       -2.38960000      -1.01180000       0.35900000
C        0.78960000      -0.69310000      -1.16810000
C        2.25540000      -0.75410000      -0.70080000
O        2.34780000      -0.09530000       0.56440000
C        1.09210000      -0.73970000       0.89190000
C        1.29620000      -1.79830000      -0.25110000
H        1.04730000       1.91420000      -0.01390000
H       -0.54440000       1.93920000      -0.81190000
H       -0.44540000       1.89120000       0.95310000
H       -3.36150000      -1.41040000       0.51350000
H        0.49130000      -0.76280000      -2.20630000
H        3.11750000      -0.76950000      -1.35390000
H        0.92900000      -0.88990000       1.95650000
H        1.26620000      -2.87640000      -0.30420000
