12
Properties=species:S:1:pos:R:3 gdb_1391=T pbc="F F F"
C       -0.02120000       1.48240000       0.01250000
C        0.01750000       0.02880000      -0.01090000
C        0.05700000      -1.17370000      -0.02820000
C        0.06400000      -2.63750000      -0.05070000
O       -1.19880000      -3.21580000       0.22830000
C        0.59930000      -3.12850000      -1.34690000
N        0.99640000      -3.52350000      -2.35700000
H        0.74870000       1.88500000       0.67880000
H        0.14630000       1.89720000      -0.98680000
H       -0.99250000       1.84210000       0.36790000
H        0.72820000      -3.01660000       0.73590000
H       -1.84100000      -2.82320000      -0.37510000
