16
Properties=species:S:1:pos:R:3 gdb_15303=T pbc="F F F"
O       -0.46370000       0.16200000      -0.07650000
C       -0.01210000       1.27520000      -0.00150000
C        1.39840000       1.66640000      -0.39130000
C        1.41280000       2.85260000      -1.33420000
C        1.22370000       4.25500000      -0.82500000
C        2.58640000       3.82970000      -1.35070000
C        3.68820000       3.66840000      -0.44890000
C        4.61600000       3.52900000       0.30470000
H       -0.63200000       2.12190000       0.37500000
H        1.93970000       1.93160000       0.52720000
H        1.89490000       0.79510000      -0.82840000
H        0.99580000       2.64750000      -2.31620000
H        0.65220000       4.95750000      -1.42060000
H        1.14440000       4.40090000       0.24660000
H        2.85620000       4.21030000      -2.33120000
H        5.43770000       3.41170000       0.96680000
