14
Properties=species:S:1:pos:R:3 gdb_129707=T pbc="F F F"
N        0.18530000       1.42410000      -0.08980000
C        0.00690000       0.03000000      -0.04180000
C       -1.09900000      -0.79650000      -0.05240000
O       -2.39180000      -0.38690000      -0.08470000
C       -0.58740000      -2.11920000      -0.02210000
N        0.75780000      -2.11400000       0.01140000
N        1.07780000      -0.81950000      -0.01160000
C       -1.38080000      -3.28930000      -0.01960000
C       -2.14490000      -4.22160000      -0.02190000
H        0.10550000       1.85070000       0.82910000
H       -0.51970000       1.85210000      -0.68040000
H       -2.94790000      -1.17500000      -0.12090000
H        2.04580000      -0.54200000      -0.01930000
H       -2.78980000      -5.06520000      -0.02260000
