14
Properties=species:S:1:pos:R:3 gdb_11717=T pbc="F F F"
O       -0.03120000       1.44750000      -0.08040000
C        0.03520000       0.05260000      -0.03620000
C        0.40770000      -0.64410000       1.33120000
C       -0.96600000      -1.33080000       1.29760000
O       -1.94250000      -0.26310000       1.21670000
C       -1.31240000      -0.69090000       0.00460000
C       -1.35150000      -2.57880000       1.85880000
C       -1.63030000      -3.64000000       2.35050000
H       -0.70630000       1.70610000       0.56040000
H        0.68470000      -0.27010000      -0.85290000
H        1.24380000      -1.33980000       1.23850000
H        0.56650000       0.02310000       2.18090000
H       -1.95840000      -1.02730000      -0.79860000
H       -1.88910000      -4.57550000       2.78160000
