16
Properties=species:S:1:pos:R:3 gdb_32250=T pbc="F F F"
C       -0.04470000       1.42280000      -0.07300000
O       -0.01970000       0.01060000       0.01080000
C        0.61810000      -0.54360000       1.07050000
C        1.25970000       0.13720000       2.09270000
C        1.87510000      -0.58950000       3.12160000
C        1.82170000      -1.96820000       3.08270000
N        1.20320000      -2.64220000       2.09760000
C        0.62560000      -1.95860000       1.13190000
O        0.00550000      -2.63810000       0.14450000
H        0.96780000       1.84130000      -0.14530000
H       -0.59890000       1.66240000      -0.98150000
H       -0.55430000       1.86980000       0.79070000
H        1.28800000       1.21950000       2.10080000
H        2.38200000      -0.07620000       3.93020000
H        2.28370000      -2.57320000       3.85710000
H        0.12140000      -3.57290000       0.36610000
