17
Properties=species:S:1:pos:R:3 gdb_84701=T pbc="F F F"
O        0.07580000       1.42820000      -0.04590000
C        0.05130000       0.00630000      -0.02820000
C        0.81240000      -0.53690000       1.16450000
C        0.16960000      -1.16570000       2.14780000
C       -1.32910000      -1.37980000       2.02920000
O       -1.60310000      -2.52830000       1.23540000
C       -1.46930000      -2.07850000      -0.11550000
C       -1.38830000      -0.53270000       0.00350000
O       -1.91260000      -0.30480000       1.31890000
H       -0.36140000       1.71290000       0.76610000
H        0.53320000      -0.30240000      -0.96350000
H        1.88090000      -0.34660000       1.20210000
H        0.68140000      -1.57260000       3.01410000
H       -1.83450000      -1.49120000       2.99010000
H       -0.57290000      -2.50260000      -0.58360000
H       -2.35150000      -2.40340000      -0.67380000
H       -2.01260000       0.00210000      -0.71370000
