17
Properties=species:S:1:pos:R:3 gdb_80341=T pbc="F F F"
C       -0.06080000       1.57570000      -0.07500000
C        0.03220000       0.07210000       0.06710000
C        1.27440000      -0.73230000      -0.17850000
O        2.43910000      -0.02550000       0.27520000
C        1.97590000      -0.08600000       1.64530000
C        1.99330000       1.19460000       2.35560000
N        2.00060000       2.18870000       2.94520000
C        0.63770000      -0.71130000       1.21710000
N       -0.06640000      -1.60830000       2.05160000
H        0.90410000       2.05350000       0.10190000
H       -0.37900000       1.83340000      -1.09030000
H       -0.78570000       2.00070000       0.62570000
H       -0.84360000      -0.46760000      -0.29590000
H        1.41910000      -1.50090000      -0.92840000
H        2.58000000      -0.80590000       2.21210000
H       -1.05880000      -1.63110000       1.86230000
H        0.30150000      -2.55210000       2.03900000
