14
Properties=species:S:1:pos:R:3 gdb_15491=T pbc="F F F"
N       -0.02080000       1.30780000       0.00670000
C       -0.00090000       0.03840000       0.00240000
N       -1.18180000      -0.69330000       0.00890000
C       -2.48440000      -0.17790000       0.02050000
N       -3.42450000      -1.03750000       0.02500000
C       -2.77660000      -2.35420000       0.01600000
C       -1.26930000      -2.09710000       0.00530000
N       -0.24880000      -2.84880000      -0.00480000
H        0.92890000       1.67480000       0.00060000
H        0.87190000      -0.61890000      -0.00630000
H       -2.60860000       0.89720000       0.02480000
H       -3.07480000      -2.93280000       0.89770000
H       -3.08830000      -2.92730000      -0.86450000
H       -0.51840000      -3.83110000      -0.00580000
