21
Properties=species:S:1:pos:R:3 gdb_114226=T pbc="F F F"
O        0.03830000       1.41710000       0.10010000
C        0.03650000      -0.00060000       0.01200000
C       -1.41580000      -0.47150000       0.02350000
C       -1.55290000      -2.01350000      -0.11860000
C       -2.64400000      -2.42050000       0.88410000
C       -3.84060000      -3.26160000       0.48070000
C       -2.78350000      -3.83760000       1.38650000
C       -2.80870000      -1.23920000       1.77170000
C       -2.14470000      -0.17690000       1.31740000
H        0.95080000       1.71590000       0.14890000
H        0.52840000      -0.34280000      -0.91360000
H        0.57270000      -0.45540000       0.86080000
H       -1.91840000       0.04590000      -0.80640000
H       -1.78350000      -2.32070000      -1.14230000
H       -0.60400000      -2.49210000       0.15580000
H       -4.80690000      -3.01550000       0.90870000
H       -3.88410000      -3.61410000      -0.54490000
H       -2.11060000      -4.58420000       0.97590000
H       -3.02920000      -3.98970000       2.43280000
H       -3.42610000      -1.26800000       2.66390000
H       -2.12450000       0.80560000       1.77250000
