16
Properties=species:S:1:pos:R:3 gdb_34344=T pbc="F F F"
N       -0.00820000      -1.17140000       0.00950000
C       -0.00470000      -0.01390000       0.00660000
C       -0.00240000       1.42500000       0.01080000
C       -0.46260000       2.19850000      -1.27120000
C        0.87430000       3.00130000      -1.27590000
C        1.34280000       2.25490000       0.00440000
C        0.92010000       2.86300000       1.36150000
O       -0.35200000       3.50340000       1.18290000
C       -0.33530000       2.09600000       1.38370000
H       -0.58970000       1.54010000      -2.13130000
H       -1.36660000       2.78990000      -1.12630000
H        1.50270000       2.79170000      -2.14330000
H        0.76800000       4.08060000      -1.16190000
H        2.30200000       1.73990000       0.00310000
H        1.54620000       3.23400000       2.16410000
H       -0.93440000       1.68660000       2.18870000
