20
Properties=species:S:1:pos:R:3 gdb_118905=T pbc="F F F"
C       -0.14850000       1.44160000       0.00290000
O       -0.10630000       0.03430000      -0.00940000
C        0.66530000      -0.48370000      -1.06270000
C        0.69110000      -2.00720000      -0.99390000
C       -0.70080000      -2.61370000      -0.86610000
C        1.53910000      -2.61040000      -2.15480000
N        2.65670000      -3.31490000      -1.50860000
C        2.50510000      -3.12010000      -0.26540000
O        1.46230000      -2.39450000       0.19140000
H        0.85530000       1.87840000       0.12200000
H       -0.59090000       1.84520000      -0.92190000
H       -0.76750000       1.74170000       0.85150000
H        0.24730000      -0.18280000      -2.04050000
H        1.70020000      -0.10550000      -1.01770000
H       -1.30270000      -2.36060000      -1.74520000
H       -0.63130000      -3.70300000      -0.79880000
H       -1.20590000      -2.22940000       0.02110000
H        0.95650000      -3.30740000      -2.76660000
H        1.92950000      -1.83720000      -2.82830000
H        3.16250000      -3.49730000       0.51090000
