15
Properties=species:S:1:pos:R:3 gdb_43560=T pbc="F F F"
O        0.04980000      -0.04630000      -0.29430000
C       -0.01690000       1.11660000      -0.04750000
C       -1.16320000       2.07950000       0.28100000
C       -0.10280000       3.12480000       0.77810000
C       -0.05550000       3.29080000       2.21460000
C       -0.02860000       3.42050000       3.40900000
C        1.05720000       2.22970000       0.15060000
C        2.25760000       1.93660000       0.88970000
C        3.24950000       1.67090000       1.51390000
H       -1.70510000       2.40060000      -0.61360000
H       -1.87830000       1.72160000       1.02330000
H       -0.17930000       4.09700000       0.28670000
H        0.00300000       3.53730000       4.46400000
H        1.30110000       2.62910000      -0.84280000
H        4.12540000       1.43660000       2.06650000
