19
Properties=species:S:1:pos:R:3 gdb_63310=T pbc="F F F"
C       -0.05620000       1.58430000       0.06190000
C       -0.00940000       0.05200000       0.02440000
C       -1.42280000      -0.54950000      -0.02620000
N        0.79360000      -0.42630000      -1.10700000
C        1.80210000      -1.31100000      -0.82740000
O        2.49320000      -1.89930000      -1.62970000
C        1.85450000      -1.40120000       0.68210000
N        2.16070000      -0.07370000       1.28460000
C        0.77000000      -0.54090000       1.20860000
H        0.95500000       1.98630000       0.14510000
H       -0.52450000       1.98110000      -0.84550000
H       -0.64580000       1.92990000       0.91720000
H       -1.94740000      -0.22790000      -0.93160000
H       -1.37950000      -1.64260000      -0.02890000
H       -2.01470000      -0.22560000       0.83670000
H        0.61930000      -0.13620000      -2.05650000
H        2.21270000      -2.30910000       1.15020000
H        2.51040000      -0.22500000       2.22890000
H        0.22690000      -0.77510000       2.11780000
