16
Properties=species:S:1:pos:R:3 gdb_6423=T pbc="F F F"
C       -0.20310000       1.60810000      -0.02410000
C       -0.00960000       0.08460000       0.00260000
C        1.19520000      -0.38000000      -0.90290000
C        2.02110000      -0.57280000       0.37590000
O        3.18430000      -0.74570000       0.59090000
C        0.79050000      -0.39320000       1.27480000
C       -1.26010000      -0.61640000      -0.23400000
C       -2.29490000      -1.19720000      -0.42990000
H        0.74990000       2.11720000       0.15600000
H       -0.58780000       1.93300000      -0.99490000
H       -0.91150000       1.92240000       0.74740000
H        1.00850000      -1.33070000      -1.41050000
H        1.57460000       0.34290000      -1.62960000
H        0.88200000       0.32030000       2.09770000
H        0.43610000      -1.34940000       1.67030000
H       -3.20810000      -1.71100000      -0.60290000
