14
Properties=species:S:1:pos:R:3 gdb_1593=T pbc="F F F"
C       -0.25020000       1.61690000       1.20450000
C       -0.19120000       0.42610000       0.22490000
C        0.75540000      -0.59730000       0.65610000
C        1.52900000      -1.44280000       1.02350000
C       -1.62880000      -0.09640000      -0.04120000
N       -1.79110000      -1.44100000       0.00240000
O       -2.52480000       0.68340000      -0.29710000
H        0.72370000       2.10720000       1.26860000
H       -0.99800000       2.32710000       0.84900000
H       -0.53290000       1.27880000       2.20510000
H        0.13860000       0.80980000      -0.75040000
H        2.22570000      -2.17740000       1.34460000
H       -1.03520000      -2.04980000       0.26650000
H       -2.71030000      -1.81700000      -0.16030000
