21
Properties=species:S:1:pos:R:3 gdb_113454=T pbc="F F F"
C       -0.00670000       1.50600000      -0.27700000
C       -0.05440000       0.08250000       0.29020000
C       -1.43330000      -0.54000000       0.20830000
C       -1.88880000      -1.23560000      -1.05960000
C       -1.61240000      -2.02770000       0.18670000
C       -0.56740000      -3.16690000       0.34360000
C       -1.64830000      -3.95090000       1.11240000
O       -2.04000000      -3.15660000       2.23670000
C       -2.62210000      -2.85860000       0.95590000
H        0.99950000       1.93000000      -0.20210000
H       -0.30230000       1.51980000      -1.33130000
H       -0.68900000       2.16930000       0.26600000
H        0.66120000      -0.55140000      -0.24850000
H        0.27610000       0.09260000       1.33690000
H       -2.20390000       0.01450000       0.74130000
H       -2.91970000      -1.11820000      -1.37990000
H       -1.17750000      -1.31760000      -1.87690000
H       -0.29570000      -3.62730000      -0.61030000
H        0.33470000      -2.94530000       0.91950000
H       -1.79090000      -5.02270000       1.18370000
H       -3.70420000      -2.86710000       0.88580000
