19
Properties=species:S:1:pos:R:3 gdb_128093=T pbc="F F F"
C       -0.03260000       1.41830000       0.25510000
N        0.06020000      -0.00070000      -0.03970000
C       -1.08280000      -0.78400000       0.04720000
C       -1.21240000      -2.16550000       0.03120000
C       -0.12920000      -3.19260000      -0.07220000
C       -2.61690000      -2.36740000       0.07600000
N       -3.26930000      -3.60410000       0.00340000
N       -3.30700000      -1.23550000       0.11800000
N       -2.33460000      -0.26760000       0.09830000
H        0.96350000       1.86070000       0.18840000
H       -0.65870000       1.91610000      -0.49460000
H       -0.44690000       1.64070000       1.25180000
H        0.86090000      -0.44790000       0.38130000
H        0.23620000      -3.54690000       0.90240000
H       -0.48630000      -4.07150000      -0.61980000
H        0.73770000      -2.80500000      -0.62010000
H       -2.88660000      -4.28820000       0.64380000
H       -4.26150000      -3.49370000       0.17460000
H       -2.61020000       0.69660000       0.09680000
