16
Properties=species:S:1:pos:R:3 gdb_81312=T pbc="F F F"
O        0.08970000       1.43710000       0.18730000
C        0.00260000       0.06120000       0.00190000
C       -1.36010000      -0.66680000      -0.14560000
C       -2.30990000       0.13810000      -1.01110000
O       -1.61550000       0.70860000      -2.14770000
C       -0.36410000       0.23170000      -2.45750000
N        0.23960000       0.53830000      -3.52220000
C        0.25080000      -0.61720000      -1.37750000
O       -0.71100000      -1.64400000      -1.00170000
H       -0.35580000       1.88300000      -0.54300000
H        0.61190000      -0.41420000       0.77120000
H       -1.85620000      -1.10980000       0.72180000
H       -3.11310000      -0.50160000      -1.39120000
H       -2.74990000       0.97380000      -0.45700000
H       -0.34590000       1.13690000      -4.10990000
H        1.22600000      -1.00520000      -1.66590000
