21
Properties=species:S:1:pos:R:3 gdb_101067=T pbc="F F F"
C        0.02460000       1.50060000      -0.26530000
O       -0.18670000       0.10810000      -0.27580000
C        0.70980000      -0.62670000      -1.09710000
C        2.06800000      -0.81680000      -0.41650000
C        0.03930000      -1.97020000      -1.41940000
C       -0.78230000      -2.65390000      -0.33550000
C       -1.47720000      -2.03580000      -1.51400000
C        0.78950000      -2.80060000      -2.32270000
C        1.42400000      -3.47760000      -3.08950000
H        0.98610000       1.77890000       0.18920000
H       -0.01230000       1.92360000      -1.28100000
H       -0.77910000       1.94180000       0.32960000
H        0.85150000      -0.08650000      -2.04780000
H        2.55590000       0.14410000      -0.23130000
H        1.93890000      -1.33160000       0.54030000
H        2.72800000      -1.41560000      -1.04890000
H       -0.72260000      -3.73370000      -0.27240000
H       -0.85070000      -2.13130000       0.61080000
H       -2.00610000      -1.10620000      -1.34810000
H       -1.89330000      -2.68940000      -2.27110000
H        1.97920000      -4.08220000      -3.76260000
