23
Properties=species:S:1:pos:R:3 gdb_77569=T pbc="F F F"
C       -0.45090000       1.49340000       0.39090000
C       -0.14860000       0.00540000       0.27480000
C        0.23850000      -0.52670000      -1.12080000
C       -0.65930000      -0.95730000      -2.23540000
O        1.48390000       0.11080000      -1.46650000
C        1.51990000      -1.04530000      -0.61780000
C        1.22900000      -0.58330000       0.82470000
C        2.23560000       0.40690000       1.40330000
C        1.00130000      -1.76940000       1.76190000
H        0.31660000       2.08800000      -0.11050000
H       -1.41660000       1.72990000      -0.07030000
H       -0.50240000       1.81040000       1.43770000
H       -0.97670000      -0.58060000       0.68910000
H       -1.19440000      -0.10030000      -2.66060000
H       -0.07840000      -1.42390000      -3.03550000
H       -1.40600000      -1.67410000      -1.87810000
H        2.12630000      -1.88340000      -0.94970000
H        2.47500000       1.19010000       0.68090000
H        1.84870000       0.88080000       2.31240000
H        3.16810000      -0.10380000       1.67040000
H        1.94350000      -2.28570000       1.98020000
H        0.57530000      -1.43780000       2.71540000
H        0.31390000      -2.50230000       1.32490000
