16
Properties=species:S:1:pos:R:3 gdb_128672=T pbc="F F F"
C       -0.00970000       1.40510000       0.00780000
O       -0.02870000      -0.02000000       0.00350000
C       -1.24240000      -0.60600000       0.01110000
N       -2.32060000       0.10500000       0.02180000
N       -3.49500000      -0.58590000       0.02870000
C       -3.67890000      -1.96600000       0.02580000
N       -4.80840000      -2.58210000       0.03270000
C       -2.41800000      -2.69720000       0.01360000
C       -1.23930000      -2.04870000       0.00640000
H        1.04380000       1.68660000       0.00030000
H       -0.51800000       1.80570000      -0.87500000
H       -0.50390000       1.80010000       0.90100000
H       -4.30700000       0.01130000       0.03710000
H       -5.59390000      -1.92860000       0.04100000
H       -2.49430000      -3.77740000       0.01070000
H       -0.28640000      -2.56430000      -0.00270000
