14
Properties=species:S:1:pos:R:3 gdb_12759=T pbc="F F F"
O       -0.01770000       1.43420000       0.05850000
C       -0.02000000       0.06080000       0.01160000
C       -0.34140000      -0.76660000      -1.21150000
C       -1.15800000      -0.91800000       0.04750000
O       -0.49420000      -1.78110000       0.97520000
C        0.61880000      -0.83640000       1.09190000
C        1.92760000      -1.41610000       0.85870000
C        3.01990000      -1.87460000       0.65350000
H        0.66260000       1.75940000      -0.54210000
H       -0.83160000      -0.19520000      -1.99450000
H        0.30850000      -1.57150000      -1.54280000
H       -2.23240000      -0.81010000       0.12520000
H        0.57310000      -0.34530000       2.07120000
H        3.98310000      -2.28720000       0.47930000
