13
Properties=species:S:1:pos:R:3 gdb_48030=T pbc="F F F"
O        0.00020000      -0.14740000       0.00160000
C        0.01700000       1.06180000       0.00730000
C        1.21720000       1.86010000       0.00020000
C        2.19790000       2.56260000      -0.00520000
C        3.38620000       3.39230000      -0.01160000
C        3.10000000       4.90310000      -0.00170000
O        1.98860000       5.37140000       0.01080000
C        4.29610000       5.72430000      -0.00880000
C        5.30190000       6.38530000      -0.01480000
H       -0.91850000       1.65620000       0.01860000
H        4.02430000       3.16380000       0.85330000
H        4.00920000       3.17220000      -0.88950000
H        6.17780000       6.98850000      -0.02000000
