18
Properties=species:S:1:pos:R:3 gdb_42064=T pbc="F F F"
C        0.38330000       1.55360000      -0.52890000
C        1.39260000       2.21040000       0.47100000
C        2.18430000       1.16090000       1.09570000
C        2.48160000       0.07430000       1.52310000
C        2.45270000      -1.34440000       1.85060000
C        1.07730000      -1.90990000       1.37490000
N        0.98640000      -1.83260000      -0.07500000
C        0.55170000      -0.79920000      -0.64730000
O       -0.06000000       0.28060000      -0.06770000
H       -0.49820000       2.19190000      -0.63610000
H        0.85730000       1.44530000      -1.51240000
H        1.99130000       2.94990000      -0.07360000
H        0.83710000       2.76170000       1.23910000
H        3.26250000      -1.89060000       1.35350000
H        2.55420000      -1.52070000       2.92750000
H        1.01780000      -2.96390000       1.66420000
H        0.28050000      -1.36060000       1.88880000
H        0.60340000      -0.72800000      -1.73840000
