23
Properties=species:S:1:pos:R:3 gdb_109770=T pbc="F F F"
C       -0.26140000       1.61540000       0.23930000
C        0.10860000       0.15180000      -0.03140000
C        0.72550000      -0.50500000       1.18710000
C       -0.12280000      -1.29700000       2.15050000
O       -1.46630000      -1.50450000       1.83410000
C        0.92140000      -2.01270000       1.32030000
C        0.45160000      -3.00420000       0.26940000
C        1.61130000      -3.72270000      -0.41480000
O       -0.47500000      -3.95710000       0.83840000
H        0.61900000       2.20350000       0.52210000
H       -0.70240000       2.08120000      -0.64740000
H       -0.98770000       1.68630000       1.05500000
H       -0.79510000      -0.39220000      -0.31910000
H        0.80420000       0.09770000      -0.87910000
H        1.51560000       0.08400000       1.64860000
H        0.07010000      -1.17820000       3.21670000
H       -1.55720000      -2.45050000       1.64400000
H        1.82170000      -2.32600000       1.84630000
H       -0.14730000      -2.49550000      -0.48890000
H        2.22190000      -4.26350000       0.31890000
H        1.23810000      -4.44200000      -1.14850000
H        2.26260000      -3.00510000      -0.92390000
H       -0.01120000      -4.42630000       1.54160000
