21
Properties=species:S:1:pos:R:3 gdb_120941=T pbc="F F F"
C       -0.10150000       1.39270000      -0.07280000
O       -0.14900000      -0.01260000      -0.10340000
C        0.77140000      -0.57250000      -1.01880000
C        0.60360000      -2.07840000      -1.00080000
C       -0.73120000      -2.68000000      -1.57010000
C        0.11020000      -3.43910000      -2.60140000
O        0.84590000      -2.45750000      -3.34970000
C        1.37140000      -2.88010000      -2.07970000
C        2.77200000      -3.39880000      -2.03150000
H        0.88890000       1.76290000       0.23840000
H       -0.33480000       1.83240000      -1.05570000
H       -0.84690000       1.73150000       0.65120000
H        0.59060000      -0.19170000      -2.03590000
H        1.80420000      -0.29500000      -0.74070000
H        0.80700000      -2.46400000       0.00280000
H       -1.24000000      -3.32770000      -0.85300000
H       -1.44500000      -1.96610000      -1.98730000
H       -0.09040000      -4.38200000      -3.09840000
H        3.49700000      -2.57890000      -2.08900000
H        2.95300000      -3.94130000      -1.09790000
H        2.95710000      -4.07320000      -2.87200000
