25
Properties=species:S:1:pos:R:3 gdb_121393=T pbc="F F F"
C        0.04710000       1.62500000      -0.03080000
C       -0.01850000       0.09490000      -0.01440000
C        0.66290000      -0.51400000       1.21850000
C        0.71780000      -2.04880000       1.24640000
C        1.61160000      -2.56330000       2.38870000
C        1.57820000      -4.09510000       2.46970000
C        0.13010000      -4.58430000       2.52090000
O       -0.62290000      -4.10080000       1.42240000
C       -0.67430000      -2.68530000       1.38290000
H        1.08510000       1.97610000      -0.02640000
H       -0.44060000       2.03720000      -0.91960000
H       -0.44810000       2.05190000       0.84860000
H       -1.06830000      -0.21910000      -0.06020000
H        0.45700000      -0.30200000      -0.92120000
H        1.69110000      -0.13040000       1.27550000
H        0.16070000      -0.15270000       2.12810000
H        1.14230000      -2.40200000       0.29520000
H        2.63870000      -2.20330000       2.25730000
H        1.25250000      -2.14130000       3.33900000
H        2.06520000      -4.52590000       1.58620000
H        2.12360000      -4.45410000       3.35030000
H        0.07360000      -5.67590000       2.47260000
H       -0.33840000      -4.26350000       3.46890000
H       -1.16260000      -2.29760000       2.29670000
H       -1.31380000      -2.43550000       0.53220000
