22
Properties=species:S:1:pos:R:3 gdb_84435=T pbc="F F F"
C       -0.10050000       1.54880000       0.05540000
C       -0.00060000       0.01800000      -0.01460000
C        0.79990000      -0.48740000      -1.20000000
C        1.79780000      -1.29290000      -0.83880000
C        1.85510000      -1.44450000       0.65180000
C        2.38940000      -2.71540000       1.25860000
N        2.13270000      -0.12310000       1.30280000
C        0.73430000      -0.61090000       1.18400000
C       -0.05760000      -0.91320000       2.42950000
H        0.89640000       1.98230000       0.16620000
H       -0.56170000       1.95540000      -0.85050000
H       -0.71200000       1.86400000       0.90790000
H       -1.02130000      -0.39220000      -0.05870000
H        0.57770000      -0.17630000      -2.21550000
H        2.50860000      -1.76870000      -1.50550000
H        3.46020000      -2.82440000       1.04980000
H        2.26180000      -2.73480000       2.34520000
H        1.88110000      -3.59290000       0.84420000
H        2.43960000      -0.29950000       2.26040000
H       -0.40790000       0.01220000       2.90240000
H       -0.94050000      -1.52010000       2.19970000
H        0.53820000      -1.45520000       3.17050000
