21
Properties=species:S:1:pos:R:3 gdb_73542=T pbc="F F F"
C       -0.14340000       1.58650000      -0.12110000
C       -0.00190000       0.07770000       0.01560000
O       -1.30470000      -0.48220000       0.17950000
C       -1.46830000      -0.80550000       1.58340000
C       -0.09030000      -0.63130000       2.32560000
C        0.80320000      -0.63100000       1.11260000
C        2.10690000      -0.11910000       0.43220000
C        1.17750000      -0.64740000      -0.73630000
C        0.90640000      -1.87450000       0.15730000
H        0.79090000       2.09120000      -0.37580000
H       -0.86260000       1.78990000      -0.92070000
H       -0.54280000       2.03700000       0.79480000
H       -2.24150000      -0.15880000       2.01410000
H       -1.81770000      -1.84180000       1.64750000
H       -0.05100000       0.31950000       2.86660000
H        0.08470000      -1.44020000       3.03910000
H        2.32210000       0.94850000       0.48070000
H        3.01000000      -0.70900000       0.60400000
H        1.41500000      -0.63620000      -1.80180000
H        1.75640000      -2.53680000       0.33950000
H       -0.00870000      -2.42980000      -0.04000000
