20
Properties=species:S:1:pos:R:3 gdb_59623=T pbc="F F F"
C        0.17900000       1.38270000      -0.17090000
C       -0.11220000      -0.11700000      -0.10180000
O        0.73520000      -0.74530000       0.85520000
C       -1.59950000      -0.42660000       0.18140000
C       -2.51700000      -0.10820000      -1.01520000
O       -2.57800000      -1.31020000      -1.79600000
C       -2.25290000      -2.39790000      -1.02800000
N       -2.28340000      -3.59230000      -1.43350000
C       -1.85800000      -1.93360000       0.35630000
H        1.24320000       1.54680000      -0.35820000
H       -0.38770000       1.88040000      -0.96320000
H       -0.08060000       1.86860000       0.77850000
H        0.16330000      -0.58500000      -1.05540000
H        0.59860000      -0.30750000       1.70330000
H       -1.90960000       0.14400000       1.06450000
H       -3.52930000       0.15810000      -0.68590000
H       -2.14730000       0.68730000      -1.66650000
H       -2.60370000      -3.63220000      -2.40280000
H       -0.98840000      -2.47450000       0.72750000
H       -2.69030000      -2.11920000       1.04390000
