20
Properties=species:S:1:pos:R:3 gdb_32657=T pbc="F F F"
C        0.00150000       1.54000000       0.04330000
C       -0.03280000       0.01010000      -0.03590000
N       -1.37750000      -0.54080000      -0.02940000
C       -2.06670000      -0.88880000       1.11160000
C       -3.33340000      -1.27890000       0.75300000
C       -3.42640000      -1.15810000      -0.66050000
C       -2.21190000      -0.69940000      -1.11810000
C       -1.77830000      -0.40240000      -2.51940000
O       -2.77630000      -0.89450000      -3.39660000
H        1.03630000       1.89720000       0.05260000
H       -0.50830000       1.99180000      -0.81260000
H       -0.49370000       1.88890000       0.95390000
H        0.48430000      -0.33470000      -0.93740000
H        0.50300000      -0.42110000       0.81550000
H       -1.58440000      -0.83030000       2.07500000
H       -4.10270000      -1.62620000       1.42570000
H       -4.27100000      -1.39320000      -1.28730000
H       -1.63310000       0.68330000      -2.66430000
H       -0.80170000      -0.87520000      -2.72860000
H       -2.56570000      -0.58940000      -4.28340000
