15
Properties=species:S:1:pos:R:3 gdb_97216=T pbc="F F F"
C       -0.12000000       1.45790000      -0.04530000
N       -0.14170000       0.00640000      -0.13070000
C        0.58500000      -0.58890000      -0.95520000
O        1.43950000      -0.04660000      -1.87740000
C        2.10110000      -1.11020000      -2.55350000
O        1.29520000      -2.25690000      -2.39200000
C        0.65650000      -2.10710000      -1.13700000
C        1.42070000      -2.75090000      -0.04970000
N        2.03530000      -3.25930000       0.78550000
H        0.55590000       1.94090000      -0.75910000
H       -1.13580000       1.83470000      -0.20400000
H        0.17120000       1.74440000       0.97070000
H        2.17180000      -0.87760000      -3.61780000
H        3.09800000      -1.25250000      -2.11210000
H       -0.34110000      -2.54730000      -1.18880000
