21
Properties=species:S:1:pos:R:3 gdb_77446=T pbc="F F F"
C        0.01660000       1.57300000       0.00100000
C        0.11800000       0.06260000      -0.09450000
C        0.69350000      -0.72650000      -1.22380000
C       -0.03010000      -1.84080000      -1.92330000
C        1.90290000       0.01290000      -1.82000000
C        2.56510000      -0.09860000      -0.42410000
O        3.69570000       0.05590000      -0.04820000
C        1.37540000      -0.75700000       0.20070000
C        1.44090000      -1.79750000       1.28300000
H        0.89210000       2.08170000      -0.40900000
H       -0.86540000       1.93710000      -0.53780000
H       -0.08210000       1.88330000       1.04650000
H       -0.74750000      -0.43770000       0.34210000
H       -0.64930000      -1.45420000      -2.74180000
H        0.67110000      -2.56410000      -2.35420000
H       -0.69250000      -2.37810000      -1.23680000
H        2.46630000      -0.59030000      -2.53950000
H        1.73940000       1.00690000      -2.24560000
H        1.58930000      -1.33460000       2.26490000
H        0.51410000      -2.37880000       1.32950000
H        2.27250000      -2.48970000       1.11720000
