18
Properties=species:S:1:pos:R:3 gdb_117504=T pbc="F F F"
C       -0.10190000       1.47450000       0.00690000
C        0.17590000      -0.01520000      -0.07150000
O        0.50490000      -0.46830000       1.24110000
C        0.74780000      -1.85520000       1.32120000
C        2.00290000      -2.22560000       0.60860000
N        2.96280000      -2.49740000       0.02630000
C        0.81590000      -2.26600000       2.72030000
C        0.86390000      -2.62850000       3.86540000
C        0.92880000      -3.05530000       5.25390000
H        0.78110000       2.01010000       0.36550000
H       -0.36390000       1.85960000      -0.98280000
H       -0.93040000       1.67720000       0.69100000
H       -0.70710000      -0.56260000      -0.43920000
H        1.00650000      -0.22290000      -0.76140000
H       -0.06580000      -2.40940000       0.81960000
H        0.13130000      -3.76830000       5.48810000
H        1.88760000      -3.53720000       5.47190000
H        0.82300000      -2.19950000       5.92890000
