14
Properties=species:S:1:pos:R:3 gdb_44044=T pbc="F F F"
O       -0.11050000       0.08150000      -0.44480000
C       -0.00290000       1.19280000      -0.06270000
O       -1.03870000       2.05020000       0.38500000
C       -0.02880000       3.01240000       0.84500000
C        0.72740000       2.93190000       2.15230000
N        1.85490000       3.22570000       1.15500000
C        0.92090000       4.17430000       0.32980000
C        1.20510000       3.45740000      -0.98390000
C        1.04710000       2.34140000       0.06030000
H        0.58680000       3.72510000       2.88990000
H        0.82820000       1.95190000       2.62710000
H        0.90490000       5.23730000       0.57880000
H        0.42900000       3.51570000      -1.74900000
H        2.20480000       3.58620000      -1.40270000
