13
Properties=species:S:1:pos:R:3 gdb_129036=T pbc="F F F"
N       -0.04830000       1.29690000       0.34160000
C       -0.07320000       0.05990000       0.03120000
C       -1.29150000      -0.71980000      -0.05140000
C       -1.20010000      -2.01240000      -0.38700000
N        0.03760000      -2.57610000      -0.64600000
C        0.17100000      -3.93530000      -1.00250000
O        1.20260000      -4.48780000      -1.23950000
N        1.21590000      -1.83810000      -0.57020000
N        1.15830000      -0.63130000      -0.25950000
H        0.92150000       1.62360000       0.33300000
H       -2.24100000      -0.24630000       0.15770000
H       -2.04660000      -2.68380000      -0.47710000
H       -0.82330000      -4.41950000      -1.03150000
