20
Properties=species:S:1:pos:R:3 gdb_53189=T pbc="F F F"
C        0.03520000       1.53090000       0.00690000
C       -0.03160000       0.07700000      -0.01750000
C       -0.08140000      -1.12760000      -0.04330000
C       -0.11630000      -2.56170000      -0.08860000
N       -0.39360000      -3.42020000       1.10950000
C       -1.41420000      -2.67540000       1.93140000
C       -2.44460000      -2.67890000       0.77470000
C       -1.36450000      -3.37620000      -0.05600000
C       -1.59980000      -4.53710000      -0.97650000
H        0.96860000       1.88120000       0.46150000
H       -0.01720000       1.94690000      -1.00550000
H       -0.79430000       1.95690000       0.58190000
H        0.68720000      -3.00670000      -0.67180000
H       -1.70300000      -3.29090000       2.78520000
H       -1.06710000      -1.70140000       2.28500000
H       -3.30500000      -3.32240000       0.97060000
H       -2.79550000      -1.71350000       0.40110000
H       -2.10180000      -4.20860000      -1.89420000
H       -0.65520000      -5.01240000      -1.25620000
H       -2.23200000      -5.29370000      -0.49890000
