15
Properties=species:S:1:pos:R:3 gdb_34791=T pbc="F F F"
C       -0.08460000      -1.22770000      -0.06080000
C       -0.01820000      -0.02910000      -0.00010000
C        0.04280000       1.41290000       0.03050000
N        0.06680000       2.10770000       1.42460000
C        1.53980000       1.66090000       1.49200000
C        1.41790000       2.16080000       0.03160000
C        0.61130000       3.32300000       0.65540000
C        2.41670000       2.19780000      -1.01610000
N        3.21160000       2.23110000      -1.85490000
H       -0.14310000      -2.28750000      -0.11060000
H       -0.71820000       1.85110000      -0.62070000
H        2.14350000       2.26020000       2.17550000
H        1.67180000       0.59140000       1.65270000
H       -0.13080000       3.82330000       0.02970000
H        1.15570000       4.02650000       1.28670000
