20
Properties=species:S:1:pos:R:3 gdb_93658=T pbc="F F F"
C        0.24280000       1.47570000      -0.19290000
C       -0.02090000      -0.00120000       0.13020000
N        0.24810000      -0.89360000      -1.01400000
C        1.52780000      -1.58600000      -0.75530000
C        1.61900000      -1.76930000       0.77110000
C        0.83680000      -3.00160000       1.26020000
O        2.94440000      -1.79940000       1.24720000
C        0.91320000      -0.48940000       1.24280000
O        1.16000000       0.05600000       2.29020000
H        1.25780000       1.61250000      -0.57770000
H       -0.45830000       1.82290000      -0.95520000
H        0.13110000       2.08380000       0.70900000
H       -1.05960000      -0.10730000       0.46640000
H       -0.49360000      -1.57710000      -1.10220000
H        1.56890000      -2.52580000      -1.31060000
H        2.36900000      -0.96390000      -1.08280000
H        1.37520000      -3.90420000       0.95730000
H        0.75770000      -2.99430000       2.35130000
H       -0.17490000      -3.04070000       0.84240000
H        2.94410000      -1.29040000       2.07160000
