18
Properties=species:S:1:pos:R:3 gdb_9829=T pbc="F F F"
C       -0.13280000       1.44250000      -0.12100000
N       -0.17530000       0.01270000      -0.36000000
C        0.93460000      -0.71220000      -0.66260000
O        2.05210000      -0.21820000      -0.74130000
C        0.72400000      -2.19380000      -0.89990000
C       -0.57430000      -2.84880000      -0.47940000
C        1.49120000      -2.72750000      -2.06840000
N        1.93980000      -3.00310000      -0.70460000
H       -0.51430000       1.68830000       0.87610000
H        0.90950000       1.75390000      -0.19250000
H       -0.72160000       1.98970000      -0.86580000
H       -1.06340000      -0.45630000      -0.31780000
H       -1.42570000      -2.48870000      -1.06990000
H       -0.50100000      -3.92800000      -0.62970000
H       -0.78710000      -2.67710000       0.58160000
H        1.08990000      -3.58040000      -2.61000000
H        2.05490000      -2.01280000      -2.66000000
H        2.69250000      -2.34830000      -0.48840000
