15
Properties=species:S:1:pos:R:3 gdb_15324=T pbc="F F F"
C        0.05370000       1.49760000       0.02700000
C        0.05980000       0.04320000       0.06180000
C        0.05400000      -1.16070000       0.09020000
C        0.04250000      -2.59270000       0.11330000
C       -0.54470000      -3.34360000       1.28420000
C       -1.27830000      -3.36880000      -0.04010000
C       -2.51610000      -2.65900000      -0.18990000
N       -3.52010000      -2.09950000      -0.31950000
H        0.65120000       1.87550000      -0.80970000
H       -0.96550000       1.88040000      -0.09260000
H        0.46470000       1.92230000       0.94940000
H        0.88020000      -3.07470000      -0.38280000
H       -0.06420000      -4.26260000       1.59870000
H       -0.98260000      -2.75190000       2.07810000
H       -1.22170000      -4.28440000      -0.61880000
