21
Properties=species:S:1:pos:R:3 gdb_38246=T pbc="F F F"
C       -0.05510000       1.59370000      -0.06430000
C        1.48010000       1.38280000      -0.02610000
C        1.17910000       0.18050000       0.94230000
C       -0.06500000       0.03950000       0.02680000
C       -1.34670000      -0.76600000       0.00880000
C       -1.64200000      -0.81190000      -1.53180000
O       -0.48300000      -0.31600000      -2.22900000
C        0.58730000      -0.35700000      -1.30200000
C        1.70480000       0.70820000      -1.40530000
H       -0.44730000       2.05520000       0.84580000
H       -0.49040000       2.06000000      -0.95170000
H        2.16410000       2.18130000       0.26350000
H        1.88730000      -0.65390000       0.97590000
H        0.95020000       0.52050000       1.95500000
H       -1.19140000      -1.77690000       0.39970000
H       -2.16650000      -0.31180000       0.57100000
H       -1.86260000      -1.83700000      -1.85790000
H       -2.48950000      -0.17870000      -1.81240000
H        1.00470000      -1.37650000      -1.25720000
H        1.53820000       1.40080000      -2.23470000
H        2.69650000       0.26220000      -1.51970000
