16
Properties=species:S:1:pos:R:3 gdb_84179=T pbc="F F F"
O        0.05850000       1.39100000      -0.11050000
C        0.04840000      -0.02230000      -0.04710000
C        0.68830000      -0.54590000       1.23380000
C       -0.16190000      -1.27610000       1.97210000
C        0.13980000      -1.90210000       3.26220000
O       -0.64930000      -2.57610000       3.88700000
C       -1.50010000      -1.34910000       1.30220000
N       -2.11100000       0.00500000       1.15190000
C       -1.36990000      -0.60800000       0.02770000
H       -0.59770000       1.67180000       0.54430000
H        0.58660000      -0.37300000      -0.93500000
H        1.69940000      -0.27420000       1.51820000
H        1.17210000      -1.72390000       3.63550000
H       -2.14620000      -2.20610000       1.44320000
H       -3.11040000      -0.09600000       0.98660000
H       -1.90110000      -0.88120000      -0.87620000
