20
Properties=species:S:1:pos:R:3 gdb_100613=T pbc="F F F"
C       -0.17750000       1.65210000      -0.10550000
C       -0.05360000       0.13230000       0.05600000
N       -1.33000000      -0.57550000       0.07460000
C       -2.06240000      -0.70360000      -1.17490000
C       -2.04140000      -0.77600000       1.23250000
N       -3.27880000      -1.09680000       1.22080000
C       -3.99360000      -1.40550000       2.43880000
C       -1.27760000      -0.63160000       2.46970000
N       -0.74120000      -0.52630000       3.48920000
H        0.81650000       2.10920000      -0.13620000
H       -0.69830000       1.91440000      -1.03140000
H       -0.72770000       2.08990000       0.73290000
H        0.53920000      -0.28490000      -0.76580000
H        0.48420000      -0.10000000       0.97860000
H       -2.64930000      -1.62380000      -1.16170000
H       -2.76110000       0.12730000      -1.33910000
H       -1.34470000      -0.73540000      -1.99800000
H       -4.34760000      -2.44300000       2.39920000
H       -3.41320000      -1.27580000       3.36240000
H       -4.88660000      -0.77240000       2.49900000
