19
Properties=species:S:1:pos:R:3 gdb_40550=T pbc="F F F"
C        0.16570000       1.52430000       0.01950000
N        1.29690000       0.59730000      -0.06460000
C       -0.07200000       0.04800000       0.03820000
C       -0.41870000      -0.68980000       1.26690000
C       -1.35580000      -1.63830000       1.39230000
C       -1.48190000      -2.15700000       2.81030000
C       -0.37280000      -1.41060000       3.54530000
N        0.97920000      -1.71790000       3.03310000
C        0.27630000      -0.48520000       2.57760000
H        0.10840000       2.09490000       0.94260000
H       -0.14470000       2.07150000      -0.86720000
H        1.63040000       0.52710000      -1.02180000
H       -0.51700000      -0.35760000      -0.86850000
H       -1.95390000      -2.02850000       0.57550000
H       -2.46870000      -1.93290000       3.23800000
H       -1.34700000      -3.24390000       2.86820000
H       -0.48980000      -1.15840000       4.59380000
H        1.65750000      -1.45260000       3.74590000
H        0.69070000       0.47730000       2.85420000
