16
Properties=species:S:1:pos:R:3 gdb_27236=T pbc="F F F"
N       -0.07440000       1.43390000       0.13010000
C       -0.13640000       0.05010000       0.08730000
C       -1.12900000      -0.83730000       0.01220000
C       -2.49270000      -1.32160000      -0.43810000
C       -1.76450000      -2.69630000      -0.69940000
N       -0.59050000      -2.12610000       0.00150000
C        0.78510000      -2.05010000      -0.11730000
N        1.60180000      -2.98920000      -0.35010000
O        1.07650000      -0.71020000       0.11380000
H        0.58550000       1.80430000      -0.54720000
H        0.18670000       1.78880000       1.04560000
H       -3.25040000      -1.36910000       0.34690000
H       -2.90780000      -0.82360000      -1.31470000
H       -2.18350000      -3.58090000      -0.21710000
H       -1.57200000      -2.90030000      -1.75660000
H        2.55540000      -2.63580000      -0.37030000
