20
Properties=species:S:1:pos:R:3 gdb_11061=T pbc="F F F"
C       -0.06770000       1.47140000       0.01640000
C        0.04600000      -0.03640000      -0.00070000
C        0.64740000      -0.66040000      -1.28850000
C        0.00440000      -2.07770000      -1.28250000
C       -0.83520000      -2.00970000       0.01290000
C        0.09260000      -2.09950000       1.24540000
C        0.73500000      -0.68210000       1.23130000
O       -1.26230000      -0.64310000       0.03960000
H        0.92570000       1.93030000      -0.01200000
H       -0.63410000       1.82640000      -0.84970000
H       -0.57600000       1.81030000       0.92390000
H        0.33780000      -0.08630000      -2.16580000
H        1.74040000      -0.68070000      -1.27050000
H       -0.64120000      -2.22450000      -2.15150000
H        0.73710000      -2.88890000      -1.26690000
H       -1.70480000      -2.66730000       0.03760000
H       -0.49080000      -2.26210000       2.15460000
H        0.82220000      -2.90970000       1.16450000
H        1.82410000      -0.70100000       1.13720000
H        0.48710000      -0.12340000       2.13760000
