16
Properties=species:S:1:pos:R:3 gdb_28239=T pbc="F F F"
N        0.04110000       1.28730000       0.18820000
C       -0.04540000      -0.07520000       0.05880000
N       -1.13660000      -0.78380000      -0.07850000
C       -0.64190000      -2.07210000      -0.00810000
C        0.68660000      -2.08800000       0.19000000
C        1.28270000      -3.42490000      -0.07780000
C       -0.04620000      -4.25980000       0.03390000
N       -1.16980000      -3.33160000      -0.31020000
O        1.11830000      -0.76470000       0.18180000
H        0.90810000       1.68810000      -0.13920000
H       -0.78040000       1.76450000      -0.15270000
H        1.71950000      -3.50580000      -1.08470000
H        2.03140000      -3.78390000       0.63570000
H       -0.05060000      -5.12520000      -0.63250000
H       -0.14550000      -4.61600000       1.06770000
H       -2.03450000      -3.56600000       0.16380000
