16
Properties=species:S:1:pos:R:3 gdb_62505=T pbc="F F F"
C       -0.11620000       1.57560000       0.05970000
C       -0.00030000       0.07460000      -0.02190000
O       -1.11000000      -0.64050000       0.42950000
C        0.66990000      -0.59780000      -1.19040000
C        1.23490000       0.14620000      -2.27390000
C        1.71120000       0.76420000      -3.18810000
C        1.34690000      -0.61780000       0.20340000
C        2.54190000       0.13160000       0.44860000
N        3.49910000       0.74480000       0.66550000
H        0.76460000       2.06920000      -0.35360000
H       -0.99750000       1.90580000      -0.49740000
H       -0.22430000       1.89340000       1.10310000
H       -1.28840000      -0.37680000       1.34000000
H        0.22980000      -1.55500000      -1.45380000
H        2.13800000       1.31020000      -3.99300000
H        1.29050000      -1.57300000       0.71330000
