17
Properties=species:S:1:pos:R:3 gdb_105608=T pbc="F F F"
O        0.21680000       1.16780000       0.37280000
C        0.02520000      -0.18240000       0.05410000
C       -1.46570000      -0.56160000      -0.12280000
C       -1.74710000      -2.09360000      -0.03500000
C       -2.28050000      -1.94960000       1.42170000
C       -2.25830000      -0.43040000       1.22690000
O       -2.72410000       0.49900000       1.80770000
C       -2.09260000       0.18290000      -1.27010000
O       -1.67140000       1.22250000      -1.72290000
H       -0.18180000       1.67430000      -0.34820000
H        0.55340000      -0.47650000      -0.86850000
H        0.45390000      -0.77010000       0.87360000
H       -2.51830000      -2.42120000      -0.73730000
H       -0.86720000      -2.72600000      -0.16480000
H       -3.26170000      -2.37270000       1.65120000
H       -1.57620000      -2.27900000       2.19200000
H       -3.01310000      -0.27980000      -1.68900000
