16
Properties=species:S:1:pos:R:3 gdb_19440=T pbc="F F F"
C       -0.01890000       1.47790000       0.02500000
O        1.17730000       0.69480000      -0.08450000
C       -0.08040000       0.01620000      -0.01280000
C       -0.35440000      -0.85530000       1.21330000
O       -0.35820000      -2.20680000       0.75480000
C       -0.60280000      -2.21170000      -0.62960000
C       -1.82230000      -1.50040000      -1.14460000
C       -0.45680000      -0.82500000      -1.19540000
H       -0.14640000       2.00520000       0.97060000
H       -0.28720000       2.05230000      -0.86080000
H        0.42640000      -0.73860000       1.96950000
H       -1.32390000      -0.60250000       1.66620000
H       -0.22660000      -3.10760000      -1.10750000
H       -2.22910000      -1.83400000      -2.09290000
H       -2.56530000      -1.14230000      -0.43980000
H        0.01860000      -0.60880000      -2.14350000
