19
Properties=species:S:1:pos:R:3 gdb_105181=T pbc="F F F"
C        0.15270000       1.12470000       0.34420000
O       -0.17980000      -0.14910000      -0.18560000
C        0.62990000      -0.56320000      -1.25570000
C        1.98840000      -1.16320000      -0.87990000
C        0.83380000      -2.06670000      -1.23160000
O        0.18200000      -2.80080000      -0.25090000
C        0.46760000       0.15380000      -2.49020000
C        0.33470000       0.75810000      -3.52490000
C        0.16580000       1.47720000      -4.77880000
H        1.18060000       1.14170000       0.73100000
H        0.04760000       1.90630000      -0.41800000
H       -0.54570000       1.31810000       1.16090000
H        2.80680000      -1.04990000      -1.58160000
H        2.25540000      -1.10730000       0.17030000
H        0.85820000      -2.58110000      -2.18670000
H       -0.28090000      -2.15720000       0.30370000
H        0.40610000       0.83570000      -5.63390000
H       -0.86850000       1.81620000      -4.90300000
H        0.81510000       2.35820000      -4.83180000
