18
Properties=species:S:1:pos:R:3 gdb_73912=T pbc="F F F"
C       -0.04190000       1.51750000       0.13170000
C       -0.03590000       0.02870000       0.03550000
C       -0.02040000      -0.72320000      -1.08650000
C       -0.02550000      -2.21900000      -0.77830000
C        0.03050000      -2.25920000       0.74190000
N        1.25920000      -1.66460000       1.30630000
C        0.00300000      -0.85690000       1.23650000
C        0.01970000      -0.24140000      -2.41550000
C        0.04470000       0.12950000      -3.56300000
H        0.86600000       1.87880000       0.63150000
H       -0.10030000       1.97950000      -0.85620000
H       -0.89110000       1.87070000       0.73070000
H       -0.93360000      -2.69880000      -1.16360000
H        0.83100000      -2.72690000      -1.23430000
H       -0.45410000      -3.06620000       1.28040000
H        1.36630000      -2.00610000       2.26070000
H       -0.47570000      -0.55870000       2.16370000
H        0.07130000       0.46560000      -4.56960000
