14
Properties=species:S:1:pos:R:3 gdb_24245=T pbc="F F F"
C       -0.00360000       1.47170000       0.11070000
C        1.29590000       0.72770000       0.04280000
O        2.00440000       0.41670000       1.26740000
C        1.14990000      -0.41300000       1.88410000
C        0.01420000      -0.76950000       1.25970000
N       -0.69330000      -1.62020000       2.09710000
C        0.05860000      -1.70880000       3.14820000
O        1.23700000      -0.96600000       3.09990000
C       -0.03630000      -0.04650000      -0.03330000
H       -0.32160000       1.89890000       1.05510000
H       -0.24160000       2.06600000      -0.76540000
H        1.98640000       0.85670000      -0.77910000
H       -0.09210000      -2.27810000       4.04970000
H       -0.38760000      -0.50480000      -0.95020000
