21
Properties=species:S:1:pos:R:3 gdb_73827=T pbc="F F F"
C       -0.01940000       1.51770000       0.11090000
C       -0.04250000       0.03110000      -0.01060000
C       -0.05270000      -0.75630000      -1.09310000
C       -0.04460000      -0.41430000      -2.54500000
C        0.02710000      -2.21790000      -0.58330000
C       -0.84380000      -2.06900000       0.69690000
C        0.04410000      -0.90480000       1.22190000
C        1.41200000      -1.61350000       1.16880000
C        1.40190000      -2.39780000       0.09050000
H        0.90600000       1.86050000       0.59430000
H       -0.08890000       2.01300000      -0.86170000
H       -0.84680000       1.88320000       0.73310000
H       -0.10550000       0.66440000      -2.71590000
H        0.87110000      -0.77780000      -3.03170000
H       -0.88360000      -0.88520000      -3.07380000
H       -0.25480000      -2.98280000      -1.30820000
H       -1.87390000      -1.76710000       0.48700000
H       -0.82420000      -2.95360000       1.34020000
H       -0.22200000      -0.44820000       2.17630000
H        2.22200000      -1.43960000       1.86460000
H        2.20160000      -3.01350000      -0.29910000
