16
Properties=species:S:1:pos:R:3 gdb_6202=T pbc="F F F"
C        0.12390000       1.51840000       0.06800000
C       -0.05840000       0.00210000      -0.01580000
O       -1.43050000      -0.34790000      -0.10570000
C        0.77080000      -0.60960000      -1.17540000
O        2.05820000      -0.92210000      -0.62690000
C        1.98620000      -1.03670000       0.73240000
O        2.93260000      -1.33820000       1.39620000
C        0.56580000      -0.72240000       1.18080000
H        1.18260000       1.78490000       0.14720000
H       -0.27230000       2.00630000      -0.83080000
H       -0.40190000       1.91720000       0.94000000
H       -1.85190000       0.23420000      -0.74690000
H        0.28610000      -1.52680000      -1.52800000
H        0.92120000       0.07010000      -2.01850000
H        0.56920000      -0.15720000       2.11350000
H        0.03440000      -1.66450000       1.35380000
