13
Properties=species:S:1:pos:R:3 gdb_21724=T pbc="F F F"
N        0.53820000       0.17490000      -0.83140000
C       -0.01050000       0.70160000       0.41470000
C        0.60970000       0.00640000       1.58180000
N        0.99990000      -1.23220000       1.65280000
C        1.42790000      -1.31110000       2.95540000
O        1.92570000      -2.43130000       3.47520000
N        1.31640000      -0.21570000       3.66220000
O        0.76190000       0.68010000       2.71990000
H        0.46050000      -0.83760000      -0.83100000
H       -0.00680000       0.51810000      -1.61510000
H        0.20920000       1.77140000       0.49660000
H       -1.10590000       0.59780000       0.52210000
H        1.92070000      -3.09610000       2.77590000
