19
Properties=species:S:1:pos:R:3 gdb_108089=T pbc="F F F"
C        0.23300000       1.41870000       0.14680000
C       -0.12820000      -0.02390000      -0.23140000
C        0.66260000      -0.53410000      -1.38980000
O        0.51700000       0.08300000      -2.67210000
C        1.27220000      -1.02540000      -3.22800000
C        2.71020000      -0.78520000      -2.70260000
C        2.13260000      -1.08300000      -1.32150000
C        0.97460000      -1.88520000      -1.91320000
O        0.42440000      -3.10680000      -1.64040000
H        1.28010000       1.49340000       0.45660000
H        0.08820000       2.08780000      -0.70600000
H       -0.39300000       1.77440000       0.97040000
H        0.03690000      -0.69720000       0.61790000
H       -1.19460000      -0.08970000      -0.47920000
H        1.03700000      -1.23820000      -4.26880000
H        3.40520000      -1.56310000      -3.03170000
H        3.12410000       0.20800000      -2.90050000
H        2.63890000      -1.21890000      -0.37370000
H        1.11130000      -3.78040000      -1.70670000
