19
Properties=species:S:1:pos:R:3 gdb_122321=T pbc="F F F"
O       -0.07790000       1.37830000       0.21870000
C        0.06110000       0.02870000      -0.17630000
C       -1.27570000      -0.69290000      -0.18240000
O       -2.10120000      -0.00320000      -1.12560000
C       -3.39270000      -0.46550000      -1.19630000
C       -3.78960000      -1.75610000      -1.88620000
C       -4.36260000      -0.43840000      -2.34250000
O       -5.45290000      -0.04840000      -1.50300000
C       -4.56320000       0.05100000      -0.35590000
H       -0.76820000       1.74900000      -0.34330000
H        0.51720000      -0.05600000      -1.17570000
H        0.73380000      -0.45120000       0.54190000
H       -1.15970000      -1.74640000      -0.47460000
H       -1.73050000      -0.65260000       0.81730000
H       -3.01440000      -2.15420000      -2.53440000
H       -4.43140000      -2.49120000      -1.40770000
H       -4.31830000      -0.04330000      -3.35000000
H       -4.90650000      -0.54970000       0.49360000
H       -4.43460000       1.09700000      -0.05520000
