17
Properties=species:S:1:pos:R:3 gdb_63867=T pbc="F F F"
C       -0.05780000       1.55780000       0.03480000
C        0.03760000       0.04580000      -0.05180000
O       -1.18120000      -0.56050000      -0.41830000
C        1.16180000      -0.58670000      -0.94260000
C        1.72880000      -1.28910000       0.29320000
N        2.09550000      -0.23250000       1.25190000
C        0.68000000      -0.68330000       1.17300000
C       -0.02520000      -1.22350000       2.28360000
N       -0.63890000      -1.63500000       3.17570000
H        0.90020000       1.98610000       0.33630000
H       -0.34590000       1.96980000      -0.93700000
H       -0.81450000       1.85580000       0.77090000
H       -1.86430000      -0.26580000       0.19560000
H        0.71370000      -1.27220000      -1.66220000
H        1.84550000       0.10440000      -1.43870000
H        2.16660000      -2.27700000       0.35800000
H        2.51500000      -0.67460000       2.07020000
