17
Properties=species:S:1:pos:R:3 gdb_52367=T pbc="F F F"
O       -0.56180000       0.77390000       0.88460000
C        0.06260000       1.00940000      -0.11670000
C        1.33930000       1.81910000      -0.17350000
C        1.25120000       2.95680000      -1.20330000
C        2.56590000       3.72470000      -1.33380000
C        2.50680000       4.84060000      -2.36440000
O        1.52210000       5.07920000      -3.02890000
C        3.72940000       5.61550000      -2.50700000
C        4.75110000       6.24380000      -2.60840000
H       -0.27920000       0.62770000      -1.10810000
H        1.55900000       2.19160000       0.83170000
H        2.14820000       1.13060000      -0.46180000
H        0.96960000       2.55630000      -2.18360000
H        0.45310000       3.65260000      -0.92420000
H        2.86950000       4.16790000      -0.37560000
H        3.39390000       3.05770000      -1.61290000
H        5.64450000       6.81080000      -2.71240000
