15
Properties=species:S:1:pos:R:3 gdb_69043=T pbc="F F F"
O       -0.08670000       1.28500000      -0.26810000
C       -0.00670000      -0.04930000      -0.06170000
C       -0.25770000      -1.01220000      -1.17410000
C       -1.13310000      -1.20380000       0.03860000
N       -0.39340000      -1.75710000       1.17510000
C        0.59760000      -0.72970000       1.13050000
N        1.55840000      -0.37770000       1.86600000
C       -2.57710000      -0.97540000       0.08150000
O       -3.22390000      -0.53980000      -0.84500000
H       -0.05480000       1.73000000       0.58840000
H       -0.77350000      -0.55860000      -2.01580000
H        0.47210000      -1.77690000      -1.42890000
H       -0.08560000      -2.72440000       1.12730000
H        1.70270000      -1.02920000       2.63950000
H       -3.03470000      -1.21000000       1.06680000
