19
Properties=species:S:1:pos:R:3 gdb_109322=T pbc="F F F"
C       -0.00290000       1.59640000       0.15950000
C       -0.02630000       0.08590000      -0.13650000
C       -1.39620000      -0.51490000      -0.07600000
C       -2.11060000      -1.08560000      -1.04070000
C       -3.42870000      -1.57000000      -0.51580000
O       -3.46260000      -1.15020000       0.84840000
C       -2.20600000      -0.57860000       1.21550000
C       -1.53290000      -1.36810000       2.25560000
C       -0.96340000      -2.00170000       3.10370000
H        1.01670000       1.98590000       0.08530000
H       -0.62970000       2.14560000      -0.54990000
H       -0.36710000       1.81370000       1.16840000
H        0.40130000      -0.10150000      -1.12710000
H        0.61800000      -0.42800000       0.58870000
H       -1.80200000      -1.21280000      -2.07130000
H       -4.28880000      -1.13310000      -1.04430000
H       -3.52840000      -2.66550000      -0.58140000
H       -2.39670000       0.42730000       1.62080000
H       -0.47180000      -2.56620000       3.85720000
