25
Properties=species:S:1:pos:R:3 gdb_95076=T pbc="F F F"
C        0.04570000       1.58120000      -0.07290000
C        0.01390000       0.05200000       0.05090000
C        0.57760000      -0.58030000      -1.24990000
C        1.13410000      -2.01020000      -1.07190000
C        1.68110000      -2.19700000       0.35020000
C        2.24320000      -0.85890000       0.91340000
C        0.76810000      -0.50130000       1.29400000
C        0.52540000       0.28980000       2.57070000
C        0.51660000      -2.03790000       1.35930000
H        1.07660000       1.95540000      -0.08900000
H       -0.43140000       1.89750000      -1.00690000
H       -0.47850000       2.07590000       0.74940000
H       -1.03750000      -0.24900000       0.16700000
H       -0.18110000      -0.55060000      -2.03920000
H        1.39230000       0.06300000      -1.60280000
H        0.35530000      -2.76200000      -1.25210000
H        1.91690000      -2.18990000      -1.81820000
H        2.30630000      -3.08970000       0.43140000
H        2.84540000      -1.02660000       1.81130000
H        2.79380000      -0.19260000       0.24250000
H        0.93210000       1.30470000       2.51240000
H       -0.54610000       0.37400000       2.79030000
H        0.99990000      -0.20730000       3.42370000
H       -0.47050000      -2.40910000       1.06180000
H        0.76800000      -2.43950000       2.34600000
