15
Properties=species:S:1:pos:R:3 gdb_98395=T pbc="F F F"
O        0.03930000       1.39480000       0.03130000
C       -0.14330000       0.05520000      -0.32660000
C       -1.41740000      -0.47980000       0.28880000
N       -2.26370000       0.27230000       0.84560000
N       -1.60850000      -1.89650000       0.07410000
C       -2.77950000      -2.29410000      -0.61800000
O       -3.12470000      -3.42000000      -0.82400000
C       -0.66980000      -2.81180000       0.59940000
O       -0.68630000      -3.99830000       0.44550000
H        0.82120000       1.72180000      -0.42350000
H       -0.23880000      -0.08970000      -1.41790000
H        0.69940000      -0.58380000      -0.01210000
H       -3.06250000      -0.25710000       1.20000000
H       -3.34150000      -1.40270000      -0.95350000
H        0.09190000      -2.28730000       1.20560000
