16
Properties=species:S:1:pos:R:3 gdb_47466=T pbc="F F F"
O       -0.07770000       0.03570000       0.45780000
C       -0.06790000       1.17940000       0.09130000
C       -1.25340000       2.07790000      -0.24540000
C       -0.63930000       3.47380000      -0.12180000
O        0.74000000       3.31870000      -0.48800000
C        1.19330000       2.04590000      -0.08370000
C        2.00240000       2.07030000       1.23380000
C        3.25580000       2.80590000       1.10460000
N        4.25080000       3.38260000       0.99530000
H       -1.55670000       1.87060000      -1.27860000
H       -2.10350000       1.87780000       0.40860000
H       -1.07020000       4.21380000      -0.79800000
H       -0.72700000       3.85440000       0.90650000
H        1.82350000       1.63030000      -0.87850000
H        1.40540000       2.52150000       2.03410000
H        2.20990000       1.03520000       1.52650000
