17
Properties=species:S:1:pos:R:3 gdb_85244=T pbc="F F F"
C        0.21780000       1.53460000      -0.07090000
C       -0.02820000       0.04230000       0.07690000
O        0.46580000      -0.64310000      -1.10180000
C        1.22800000      -1.72470000      -0.78970000
O        1.61600000      -2.51110000      -1.60400000
C        1.46710000      -1.74570000       0.70690000
C        1.87110000      -3.01500000       1.38810000
O        2.11730000      -0.51220000       1.10150000
C        0.70040000      -0.61450000       1.23610000
H        1.29150000       1.73400000      -0.09040000
H       -0.23080000       1.90300000      -0.99640000
H       -0.22880000       2.07480000       0.76980000
H       -1.10200000      -0.17180000       0.14780000
H        2.78240000      -3.40860000       0.92940000
H        2.05440000      -2.83530000       2.44960000
H        1.09070000      -3.77450000       1.28220000
H        0.29970000      -0.57410000       2.24490000
