23
Properties=species:S:1:pos:R:3 gdb_120955=T pbc="F F F"
O        0.00260000       1.43060000      -0.10090000
C        0.04310000       0.01320000      -0.01510000
C       -1.39170000      -0.50020000      -0.02920000
C       -1.48300000      -2.02480000       0.05690000
C       -1.08640000      -2.65540000       1.44050000
C       -2.37100000      -3.45560000       1.73410000
C       -2.68120000      -4.09100000       0.34730000
C       -2.91370000      -2.60510000      -0.05320000
C       -3.48060000      -2.42320000       1.38600000
H        0.90620000       1.75840000      -0.08230000
H        0.59900000      -0.42110000      -0.86300000
H        0.55190000      -0.31370000       0.90610000
H       -1.93350000      -0.02920000       0.79930000
H       -1.86830000      -0.15010000      -0.95350000
H       -0.86220000      -2.44950000      -0.74260000
H       -0.20010000      -3.29380000       1.37790000
H       -0.89570000      -1.89320000       2.20380000
H       -2.39600000      -4.03910000       2.65530000
H       -1.88290000      -4.64240000      -0.16030000
H       -3.60300000      -4.67750000       0.34890000
H       -3.48800000      -2.32920000      -0.93900000
H       -4.48600000      -2.83830000       1.48950000
H       -3.43700000      -1.43440000       1.85100000
