25
Properties=species:S:1:pos:R:3 gdb_80400=T pbc="F F F"
C       -0.10750000       1.58480000      -0.00630000
C        0.03780000       0.07970000       0.03180000
C        1.30130000      -0.66900000      -0.33410000
C        2.63480000       0.07690000      -0.34860000
C        3.13400000       0.09350000       1.12950000
C        3.93380000      -1.19330000       1.40170000
C        3.99610000       1.31920000       1.44600000
C        1.81540000       0.05650000       1.96280000
C        0.79290000      -0.68160000       1.10000000
H        0.79330000       2.11170000       0.31730000
H       -0.33610000       1.92670000      -1.02220000
H       -0.92620000       1.91200000       0.64460000
H       -0.86690000      -0.43060000      -0.29340000
H        1.19900000      -1.54440000      -0.96620000
H        3.35820000      -0.41940000      -1.00310000
H        2.52620000       1.09920000      -0.72990000
H        4.83640000      -1.23580000       0.78180000
H        4.24470000      -1.25060000       2.45100000
H        3.33440000      -2.08320000       1.18140000
H        3.44790000       2.24970000       1.25980000
H        4.31180000       1.32310000       2.49550000
H        4.90230000       1.33780000       0.82980000
H        1.96790000      -0.45400000       2.91890000
H        1.48520000       1.07330000       2.20650000
H        0.32030000      -1.56630000       1.51280000
