18
Properties=species:S:1:pos:R:3 gdb_91188=T pbc="F F F"
C       -0.09860000       1.55130000       0.01730000
C        0.10960000       0.04110000       0.02170000
C        0.89610000      -0.48800000      -1.23950000
N        1.80630000      -1.42470000      -0.59730000
C        2.97900000      -2.10200000      -0.88000000
N        3.65890000      -2.48190000       0.13860000
C        2.93080000      -1.99190000       1.33230000
C        1.76910000      -1.19850000       0.77950000
N        0.88230000      -0.39740000       1.21320000
H        0.86410000       2.07240000      -0.00470000
H       -0.68180000       1.86420000      -0.85560000
H       -0.63170000       1.86260000       0.91920000
H       -0.87180000      -0.45040000       0.06410000
H        0.24660000      -0.97620000      -1.97030000
H        1.44230000       0.32160000      -1.74220000
H        3.26010000      -2.31230000      -1.90650000
H        2.59240000      -2.84050000       1.93840000
H        3.58640000      -1.38630000       1.96510000
