24
Properties=species:S:1:pos:R:3 gdb_121851=T pbc="F F F"
C        0.04710000       1.48730000      -0.09520000
C       -0.03670000      -0.04120000      -0.06940000
C       -1.47360000      -0.53020000       0.02970000
O       -1.44560000      -1.96180000       0.04200000
C       -2.63800000      -2.59840000       0.11820000
C       -2.42720000      -4.09710000       0.10670000
N       -3.71850000      -1.94060000       0.17800000
C       -4.99970000      -2.61520000       0.26160000
C       -5.80440000      -2.08730000       1.45260000
H        1.08570000       1.82270000      -0.16700000
H       -0.49650000       1.90200000      -0.95120000
H       -0.38210000       1.92600000       0.81230000
H        0.41930000      -0.46030000      -0.97400000
H        0.53310000      -0.43750000       0.77930000
H       -1.96520000      -0.16840000       0.94040000
H       -2.08030000      -0.18570000      -0.81600000
H       -1.36060000      -4.32030000       0.13020000
H       -2.90710000      -4.56750000       0.96920000
H       -2.85970000      -4.54240000      -0.79430000
H       -5.55530000      -2.40210000      -0.66230000
H       -4.92010000      -3.71070000       0.33060000
H       -6.80130000      -2.53900000       1.48030000
H       -5.29730000      -2.31620000       2.39550000
H       -5.91350000      -1.00110000       1.38640000
