19
Properties=species:S:1:pos:R:3 gdb_56513=T pbc="F F F"
C       -0.04420000       1.58110000       0.11670000
C        0.00580000       0.04200000       0.04790000
C        0.71770000      -0.53960000       1.28660000
C       -1.36840000      -0.47980000      -0.00300000
N       -2.44500000      -0.89670000      -0.07270000
C        0.71880000      -0.46120000      -1.28070000
N        0.04550000      -0.13590000      -2.53370000
C        2.10100000       0.01740000      -1.32600000
C        3.22930000       0.42960000      -1.36010000
H        0.97370000       1.97830000       0.13720000
H       -0.56790000       2.00170000      -0.74560000
H       -0.56750000       1.90780000       1.01860000
H        0.20540000      -0.23910000       2.20410000
H        0.74030000      -1.63260000       1.25170000
H        1.74590000      -0.17220000       1.32180000
H        0.74000000      -1.55700000      -1.20830000
H       -0.92250000      -0.44250000      -2.50060000
H        0.05510000       0.86440000      -2.70180000
H        4.23250000       0.77590000      -1.40400000
