17
Properties=species:S:1:pos:R:3 gdb_52559=T pbc="F F F"
C        0.11080000       1.39420000       0.06170000
C        0.09560000      -0.05690000       0.00500000
C        0.08400000      -1.26070000      -0.03900000
C       -0.00870000      -2.69680000      -0.12430000
O       -0.98240000      -3.30280000      -0.49720000
O        1.14520000      -3.27450000       0.28400000
C        1.17580000      -4.69080000       0.22980000
C        1.96110000      -5.32840000      -0.87640000
C        2.49920000      -5.30470000       0.54210000
H        1.13270000       1.78350000       0.00740000
H       -0.46500000       1.82620000      -0.76340000
H       -0.33350000       1.74700000       0.99890000
H        0.25570000      -5.15150000       0.56610000
H        1.59560000      -6.26120000      -1.29030000
H        2.42900000      -4.66220000      -1.59190000
H        3.31670000      -4.62390000       0.74930000
H        2.51350000      -6.22320000       1.11750000
