16
Properties=species:S:1:pos:R:3 gdb_48514=T pbc="F F F"
O       -0.19520000       0.18330000      -0.48590000
C        0.05780000       1.11970000       0.23510000
C        1.29880000       1.92210000       0.12350000
C        2.76550000       1.37730000      -0.03260000
C        2.75610000       1.75250000      -1.53440000
C        1.70840000       2.81220000      -1.11720000
C        2.34870000       3.68210000      -0.01850000
C        3.10360000       2.65880000       0.75560000
N        1.68850000       2.99250000       1.14270000
H       -0.63880000       1.45250000       1.03620000
H        3.08700000       0.40900000       0.34290000
H        3.68800000       2.09640000      -1.99200000
H        2.30080000       0.96100000      -2.13500000
H        0.98850000       3.25140000      -1.80360000
H        2.54910000       4.74610000      -0.01280000
H        3.93740000       2.86240000       1.41540000
