18
Properties=species:S:1:pos:R:3 gdb_32751=T pbc="F F F"
C       -0.09910000       1.44990000       0.02880000
C        0.28500000      -0.01530000      -0.02220000
O        0.16110000      -0.54730000       1.31460000
C        0.50140000      -1.82700000       1.46860000
C        1.36220000      -2.45720000       2.30690000
C        2.29430000      -1.87210000       3.31140000
N        1.23870000      -3.83350000       2.09420000
C        0.35100000      -3.94800000       1.16650000
O       -0.16340000      -2.77270000       0.72340000
H        0.56050000       2.00010000       0.70530000
H       -0.02050000       1.89110000      -0.96910000
H       -1.12830000       1.56550000       0.37950000
H       -0.37220000      -0.57780000      -0.69450000
H        1.32040000      -0.15070000      -0.36070000
H        2.04370000      -2.20460000       4.32460000
H        3.32740000      -2.17860000       3.11570000
H        2.24390000      -0.78080000       3.28630000
H       -0.02330000      -4.84510000       0.69890000
