18
Properties=species:S:1:pos:R:3 gdb_118029=T pbc="F F F"
O       -0.07590000       1.47210000       0.02830000
C        0.04130000       0.05910000      -0.00800000
C       -1.37080000      -0.51460000      -0.01420000
C       -1.38810000      -2.04140000      -0.00240000
O       -0.79310000      -2.59420000       1.15870000
C       -2.83370000      -2.58160000      -0.17290000
O       -3.45430000      -2.13350000      -1.36230000
C       -2.85090000      -4.05500000      -0.08520000
N       -2.87570000      -5.21000000      -0.08110000
H        0.80890000       1.84670000       0.06750000
H        0.57900000      -0.27680000      -0.91020000
H        0.59330000      -0.32580000       0.86160000
H       -1.91060000      -0.13640000       0.86610000
H       -1.91210000      -0.15110000      -0.89240000
H       -0.78990000      -2.42900000      -0.83780000
H       -1.19670000      -2.18230000       1.93180000
H       -3.44830000      -2.18580000       0.64560000
H       -3.04490000      -2.58690000      -2.10860000
