19
Properties=species:S:1:pos:R:3 gdb_37070=T pbc="F F F"
C        0.17040000       1.40050000      -0.16990000
C        1.43600000       0.58510000       0.05350000
C        1.97760000       0.41550000       1.45310000
C        0.71020000      -0.03010000       2.23630000
O       -0.19890000      -0.61960000       1.29120000
C        0.12310000      -0.10780000       0.02860000
C        0.14900000      -1.02040000      -1.17440000
C        1.35480000      -0.45730000      -1.97900000
O        2.21680000       0.22180000      -1.05020000
H       -0.18520000       2.03270000       0.63640000
H       -0.01300000       1.79640000      -1.16290000
H        2.73120000      -0.37760000       1.42690000
H        2.43050000       1.30710000       1.89510000
H        0.92040000      -0.77360000       3.00980000
H        0.23180000       0.83240000       2.72000000
H        0.34450000      -2.03700000      -0.81960000
H       -0.76410000      -1.03470000      -1.77580000
H        1.94160000      -1.23390000      -2.47680000
H        1.01080000       0.24860000      -2.74720000
