19
Properties=species:S:1:pos:R:3 gdb_125866=T pbc="F F F"
C       -0.61520000       1.34870000       0.27490000
C       -0.16000000      -0.08790000       0.16210000
C        1.16660000      -0.43110000      -0.45800000
C        0.97450000      -0.63530000       1.02640000
C        1.68860000       0.21240000       2.00280000
C        2.81160000       1.01670000       1.91440000
C        2.98490000       1.54970000       3.20940000
N        2.05270000       1.11910000       4.05360000
N        1.28000000       0.31370000       3.29780000
H        0.22390000       2.01390000       0.49690000
H       -1.07560000       1.68540000      -0.66020000
H       -1.35500000       1.47130000       1.07390000
H       -0.96020000      -0.80040000      -0.02120000
H        1.24760000      -1.31080000      -1.08630000
H        1.79810000       0.39540000      -0.76680000
H        0.84660000      -1.66730000       1.34530000
H        3.42310000       1.17500000       1.04120000
H        3.75250000       2.22400000       3.56050000
H        0.48320000      -0.13360000       3.71920000
