19
Properties=species:S:1:pos:R:3 gdb_83963=T pbc="F F F"
C       -0.14450000       1.54500000       0.00240000
C        0.06220000       0.03570000       0.01220000
C        1.02020000      -0.53350000      -1.06160000
O        2.25620000       0.20610000      -0.98060000
C        2.90210000       0.05340000       0.26860000
O        2.04280000       0.19230000       1.38360000
C        0.81310000      -0.54690000       1.23350000
C        1.08710000      -1.97280000       0.76310000
C        1.20710000      -1.96500000      -0.56630000
H        0.80210000       2.07850000       0.09100000
H       -0.62960000       1.86150000      -0.92730000
H       -0.78870000       1.85120000       0.83370000
H       -0.90170000      -0.47720000      -0.07780000
H        0.68530000      -0.43240000      -2.09530000
H        3.40750000      -0.92200000       0.30850000
H        3.63980000       0.85590000       0.33980000
H        0.29850000      -0.45750000       2.19160000
H        1.24510000      -2.81260000       1.42850000
H        1.48250000      -2.79730000      -1.20240000
