19
Properties=species:S:1:pos:R:3 gdb_12073=T pbc="F F F"
C        0.09240000       1.52610000      -0.07740000
C        0.00690000       0.00780000       0.11340000
C       -1.41330000      -0.54290000       0.02920000
O       -2.24540000      -0.05600000       1.07020000
C       -2.14440000      -0.50540000      -1.37680000
C       -2.28330000      -2.02800000      -1.29270000
N       -0.89870000      -2.55850000      -1.21430000
C       -1.57610000      -2.07200000       0.01150000
H        1.13100000       1.86700000      -0.03600000
H       -0.31770000       1.83400000      -1.04570000
H       -0.45020000       2.06870000       0.70610000
H        0.60810000      -0.50100000      -0.64590000
H        0.41980000      -0.26490000       1.09270000
H       -2.30780000       0.90040000       0.97780000
H       -3.09820000       0.01940000      -1.29200000
H       -1.57720000      -0.13480000      -2.23470000
H       -3.09080000      -2.64460000      -1.66730000
H       -0.96470000      -3.57600000      -1.20250000
H       -1.71930000      -2.70540000       0.87830000
