16
Properties=species:S:1:pos:R:3 gdb_42964=T pbc="F F F"
O        0.00150000       0.00120000      -0.05630000
C       -0.00180000       1.19830000      -0.03990000
C       -1.24630000       2.09960000       0.08740000
O       -1.65390000       2.24410000       1.47520000
C       -1.44690000       3.67820000       1.41480000
C       -0.75300000       3.55450000       0.04460000
C        0.77170000       3.42510000       0.02530000
C        1.48200000       2.72870000       1.12310000
N        1.17850000       2.00950000      -0.14460000
H       -2.06930000       1.77420000      -0.55580000
H       -2.40340000       4.21340000       1.38570000
H       -0.84570000       4.04830000       2.25150000
H       -1.11130000       4.20480000      -0.75230000
H        1.32740000       4.12840000      -0.58650000
H        2.53900000       2.91200000       1.28930000
H        0.92200000       2.42960000       2.00400000
