23
Properties=species:S:1:pos:R:3 gdb_73144=T pbc="F F F"
C        0.22850000       1.63970000       0.14420000
C        0.07250000       0.13530000       0.10040000
C       -1.36570000      -0.43790000      -0.07480000
C       -1.15390000      -1.37090000       1.15540000
C        0.27960000      -0.81170000       1.34960000
C        1.39080000      -1.58350000       0.58990000
C        1.14910000      -0.68980000      -0.63830000
C        1.14870000      -1.10420000      -2.08100000
C        2.21010000      -0.16260000      -1.56080000
H        1.24130000       1.93090000       0.44310000
H        0.03030000       2.08960000      -0.83740000
H       -0.47550000       2.08730000       0.85480000
H       -2.14750000       0.31110000       0.08180000
H       -1.55620000      -0.93460000      -1.03020000
H       -1.82740000      -1.15070000       1.98740000
H       -1.20730000      -2.44540000       0.95540000
H        0.53420000      -0.43070000       2.34010000
H        2.38670000      -1.45880000       1.02680000
H        1.20770000      -2.65510000       0.45460000
H        1.43640000      -2.12310000      -2.32170000
H        0.38270000      -0.69390000      -2.73270000
H        2.15950000       0.87770000      -1.86630000
H        3.22100000      -0.54100000      -1.44090000
