19
Properties=species:S:1:pos:R:3 gdb_100848=T pbc="F F F"
C       -0.03560000       1.50950000       0.14630000
C        0.07940000      -0.01530000       0.07920000
C        0.68830000      -0.50170000      -1.24100000
O        1.99110000       0.01030000      -1.44480000
C        0.67930000      -2.06690000      -1.33910000
C       -0.76140000      -2.58110000      -1.43440000
O       -1.37110000      -3.05910000      -0.51630000
C        1.42120000      -2.54720000      -2.49710000
C        1.97090000      -2.97760000      -3.47540000
H        0.93750000       1.97880000      -0.01920000
H       -0.72150000       1.88630000      -0.62020000
H       -0.41480000       1.83120000       1.12040000
H        0.70810000      -0.38230000       0.90370000
H       -0.90250000      -0.47880000       0.22340000
H        0.10600000      -0.10860000      -2.08380000
H        2.55460000      -0.30830000      -0.73000000
H        1.10260000      -2.47290000      -0.41140000
H       -1.21260000      -2.46260000      -2.44360000
H        2.48260000      -3.34460000      -4.33060000
