14
Properties=species:S:1:pos:R:3 gdb_127738=T pbc="F F F"
C       -0.04430000       1.43270000       0.01590000
N       -0.00090000      -0.01570000       0.07010000
N       -0.02260000      -0.74260000      -1.03750000
N        0.02330000      -2.01150000      -0.70830000
C        0.07980000      -2.11450000       0.64360000
N        0.19630000      -3.32510000       1.27430000
C        0.06330000      -0.82830000       1.17900000
C        0.09390000      -0.36730000       2.50380000
N        0.11450000      -0.00170000       3.60510000
H        0.85510000       1.85770000       0.46890000
H       -0.09770000       1.71040000      -1.03610000
H       -0.92390000       1.80700000       0.54600000
H       -0.07760000      -4.11060000       0.70250000
H       -0.14300000      -3.37300000       2.22270000
