21
Properties=species:S:1:pos:R:3 gdb_63430=T pbc="F F F"
C        0.50200000       1.33110000       0.32510000
C       -0.02980000      -0.05620000      -0.01620000
O       -1.42060000      -0.00670000      -0.29200000
C        0.81920000      -0.85180000      -1.06290000
C        1.22510000      -1.87070000       0.04290000
C        2.71310000      -1.85170000       0.42750000
C        3.00910000      -2.68800000       1.58480000
C        3.22340000      -3.38490000       2.54070000
C        0.25960000      -1.16060000       1.03540000
H        1.56350000       1.30360000       0.59120000
H        0.39610000       2.00970000      -0.53150000
H       -0.05380000       1.75240000       1.16890000
H       -1.56460000       0.65270000      -0.98010000
H        0.19320000      -1.28570000      -1.84560000
H        1.64240000      -0.30180000      -1.53030000
H        0.93870000      -2.90080000      -0.18040000
H        3.31290000      -2.18410000      -0.43060000
H        3.02980000      -0.82030000       0.63420000
H        3.42350000      -3.99790000       3.38390000
H        0.70740000      -0.82180000       1.97340000
H       -0.63970000      -1.73550000       1.26220000
