18
Properties=species:S:1:pos:R:3 gdb_38668=T pbc="F F F"
C        0.03900000       1.47880000       0.09800000
C        1.34950000       0.74880000      -0.05950000
C        1.74900000       0.06310000       1.25240000
C        0.40120000      -0.74090000       1.21680000
N        0.62340000      -2.16080000       1.02290000
C        0.36290000      -2.66870000      -0.10800000
O       -0.16270000      -2.11900000      -1.23100000
C       -0.68870000      -0.78120000      -1.13010000
C        0.01750000      -0.00600000      -0.07300000
H       -0.23860000       1.92430000       1.05160000
H       -0.27420000       2.05720000      -0.76710000
H        2.01260000       0.96430000      -0.88920000
H        2.59910000      -0.61410000       1.15830000
H        1.90400000       0.72230000       2.11230000
H       -0.25830000      -0.59890000       2.08090000
H        0.56980000      -3.72170000      -0.29390000
H       -0.58680000      -0.33730000      -2.12500000
H       -1.76020000      -0.86660000      -0.90130000
