20
Properties=species:S:1:pos:R:3 gdb_117899=T pbc="F F F"
C        0.01830000       1.61340000       0.05440000
C        0.01040000       0.08260000       0.01040000
C       -1.40620000      -0.49660000       0.10350000
C       -1.46430000      -2.02630000      -0.01250000
C       -0.80170000      -2.77030000       1.16860000
C       -2.89890000      -2.50010000      -0.16230000
O       -3.88350000      -1.81500000      -0.05280000
C       -3.04860000      -3.94530000      -0.47340000
N       -3.15840000      -5.06800000      -0.72790000
H        1.03670000       2.00710000      -0.01530000
H       -0.56130000       2.03630000      -0.77330000
H       -0.42000000       1.98430000       0.98730000
H        0.48260000      -0.25970000      -0.92030000
H        0.63060000      -0.30440000       0.82760000
H       -1.87360000      -0.19290000       1.04830000
H       -2.02820000      -0.06140000      -0.68690000
H       -0.94920000      -2.34650000      -0.93160000
H       -0.90070000      -3.85470000       1.06830000
H        0.26420000      -2.53730000       1.21090000
H       -1.25640000      -2.46960000       2.11800000
