19
Properties=species:S:1:pos:R:3 gdb_8362=T pbc="F F F"
C        0.02350000       1.50630000      -0.06370000
C        0.02600000      -0.01040000       0.00540000
O        0.65540000      -0.51090000      -1.16860000
C        0.72770000      -1.88290000      -1.23970000
C       -0.39750000      -2.95510000      -1.29790000
N        0.88530000      -3.78460000      -1.44780000
C        1.35510000      -2.66730000      -2.39770000
C        1.45700000      -2.90780000      -0.32510000
H        1.04610000       1.88940000      -0.12310000
H       -0.52250000       1.84930000      -0.94700000
H       -0.45450000       1.92690000       0.82610000
H        0.56740000      -0.35750000       0.89890000
H       -1.00220000      -0.39760000       0.07450000
H       -0.95540000      -3.18490000      -0.38670000
H       -1.03870000      -2.98090000      -2.18270000
H        0.83770000      -2.66740000      -3.36020000
H        2.44030000      -2.62660000      -2.51960000
H        2.54960000      -2.88940000      -0.30040000
H        1.03360000      -3.13420000       0.65670000
