17
Properties=species:S:1:pos:R:3 gdb_66393=T pbc="F F F"
C       -0.06060000       1.57140000       0.00600000
C        0.06250000       0.07590000      -0.00950000
C        0.64000000      -0.93310000      -1.03640000
C        1.22350000      -1.81870000       0.07260000
C        0.68340000      -0.76650000       1.07670000
O        0.88180000      -0.56490000       2.24030000
C       -0.84930000      -0.81780000      -0.86920000
C       -1.67740000      -1.86660000      -0.34010000
C       -2.37670000      -2.74320000       0.09470000
H        0.87510000       2.03660000       0.33220000
H       -0.30910000       1.96040000      -0.98630000
H       -0.84750000       1.88790000       0.69840000
H        1.12380000      -0.69870000      -1.97590000
H        0.83650000      -2.83730000       0.14700000
H        2.31660000      -1.83490000       0.10000000
H       -1.32870000      -0.23100000      -1.65040000
H       -2.99480000      -3.51290000       0.48620000
