17
Properties=species:S:1:pos:R:3 gdb_85506=T pbc="F F F"
C       -0.07820000       1.54010000      -0.16780000
C       -0.03520000       0.03620000       0.03810000
O        0.63800000      -0.57910000      -1.06930000
C        1.37470000      -1.65110000      -0.63690000
N        2.04320000      -2.43780000      -1.36230000
N        1.25500000      -1.74330000       0.74700000
C        0.74180000      -0.50200000       1.27480000
C        1.82830000       0.42070000       1.82030000
O        2.99450000       0.12780000       1.85060000
H        0.92860000       1.95850000      -0.25450000
H       -0.62040000       1.76700000      -1.08900000
H       -0.59730000       2.03100000       0.66130000
H       -1.05630000      -0.36420000       0.07690000
H        1.95260000      -2.18240000      -2.34270000
H        2.06680000      -2.13720000       1.20250000
H        0.03530000      -0.66080000       2.10330000
H        1.45800000       1.38010000       2.24450000
