15
Properties=species:S:1:pos:R:3 gdb_16476=T pbc="F F F"
C        0.04040000       1.50270000       0.01680000
C       -0.10050000       0.01530000       0.01040000
C       -0.00310000      -0.86620000       1.22410000
C       -0.54660000      -2.25690000       0.92470000
C        0.13470000      -2.04670000      -0.44200000
N        1.07620000      -0.96450000       0.20300000
C       -0.60570000      -0.87260000      -1.08240000
O       -1.13250000      -0.67710000      -2.14100000
H        0.75850000       1.82160000       0.77750000
H        0.38450000       1.86030000      -0.95770000
H       -0.92190000       1.97760000       0.23360000
H        0.18720000      -0.41850000       2.19450000
H       -0.02560000      -3.00830000       1.52330000
H       -1.62460000      -2.44190000       0.94510000
H        0.55140000      -2.85500000      -1.03690000
