16
Properties=species:S:1:pos:R:3 gdb_30286=T pbc="F F F"
C        0.10120000       1.56110000      -0.10250000
C       -0.05640000       0.05920000       0.10190000
O        0.51410000      -0.65230000      -1.03740000
C        1.49080000      -1.64370000      -0.67180000
C        1.55700000      -1.45900000       0.80040000
C        0.70520000      -0.52670000       1.24710000
N        0.81030000      -0.41630000       2.62440000
C        1.72180000      -1.29160000       2.91600000
O        2.23830000      -1.98320000       1.84900000
H        1.15920000       1.83180000      -0.15840000
H       -0.39030000       1.86920000      -1.02930000
H       -0.35570000       2.10180000       0.73240000
H       -1.12620000      -0.19190000       0.15050000
H        1.14510000      -2.64250000      -0.97670000
H        2.43540000      -1.44040000      -1.19490000
H        2.12550000      -1.54420000       3.88360000
