20
Properties=species:S:1:pos:R:3 gdb_101138=T pbc="F F F"
O        0.32520000       0.27650000       0.95080000
C       -0.15900000       0.19470000      -0.36740000
C       -1.55130000      -0.45540000      -0.43520000
O       -2.12990000      -0.34620000      -1.72970000
C       -1.51290000      -1.91060000       0.00130000
C       -2.17710000      -2.44470000       1.20460000
N       -0.70110000      -2.37990000       1.21890000
C       -0.24190000      -3.55660000       0.39930000
C       -0.98030000      -3.05410000      -0.86850000
H        0.24050000      -0.61310000       1.33470000
H       -0.23260000       1.21380000      -0.76190000
H        0.53230000      -0.36010000      -1.03250000
H       -2.21100000       0.11010000       0.23070000
H       -1.49890000      -0.69800000      -2.36760000
H       -2.63800000      -1.72720000       1.87680000
H       -2.64910000      -3.42550000       1.19100000
H        0.84560000      -3.55110000       0.31090000
H       -0.56120000      -4.51800000       0.81390000
H       -1.73160000      -3.70300000      -1.32560000
H       -0.28540000      -2.72430000      -1.64470000
