20
Properties=species:S:1:pos:R:3 gdb_90834=T pbc="F F F"
C       -0.22720000       1.50780000      -0.07290000
C        0.05100000       0.01160000       0.06480000
C        1.10600000      -0.55770000      -0.99530000
N        2.23420000      -1.15870000      -0.20690000
C        1.50700000      -1.79480000       0.95420000
C        2.38510000      -1.22970000       2.09740000
C        1.14750000      -0.56060000       2.78700000
C        0.86450000      -0.41540000       1.26820000
C        2.37280000      -0.19420000       0.94560000
H        0.69740000       2.09060000       0.00390000
H       -0.68310000       1.73580000      -1.04230000
H       -0.91100000       1.86060000       0.70630000
H       -0.89070000      -0.54410000      -0.00660000
H        0.66620000      -1.32480000      -1.63910000
H        1.49560000       0.24160000      -1.63390000
H        1.00260000      -2.76110000       0.88580000
H        3.25140000      -1.69420000       2.56750000
H        0.48650000      -1.22320000       3.35380000
H        1.33820000       0.35930000       3.34740000
H        2.91010000       0.75320000       0.87060000
