14
Properties=species:S:1:pos:R:3 gdb_133301=T pbc="F F F"
N       -0.04830000       1.38050000       0.09710000
C       -0.02130000      -0.01110000       0.02680000
C       -1.25170000      -0.70920000      -0.02010000
N       -2.46490000      -0.03750000      -0.06140000
C       -1.12380000      -2.08090000      -0.06000000
F       -2.22840000      -2.83740000      -0.10550000
C        0.13990000      -2.66110000      -0.02220000
N        1.25190000      -1.93980000       0.05470000
N        1.16440000      -0.60960000       0.06610000
H        0.88850000       1.76060000       0.03170000
H       -0.67160000       1.80990000      -0.57670000
H       -2.48280000       0.79270000       0.51810000
H       -3.26510000      -0.63270000       0.10340000
H        0.24940000      -3.74030000      -0.04450000
