17
Properties=species:S:1:pos:R:3 gdb_36191=T pbc="F F F"
N       -0.18900000      -1.05910000      -0.49100000
C       -0.08600000       0.04550000      -0.16840000
C        0.06880000       1.44450000       0.24180000
C        1.49390000       1.92490000       0.13170000
C        2.68770000       1.62400000       1.02260000
N        3.39220000       2.82960000       0.43080000
C        3.60450000       2.37240000      -1.00320000
C        2.10080000       2.41400000      -1.20410000
C        2.00010000       3.33010000      -0.01790000
H       -0.59150000       2.06180000      -0.37920000
H       -0.29160000       1.54420000       1.27320000
H        2.47690000       1.81010000       2.07980000
H        3.22690000       0.67700000       0.91280000
H        4.12610000       3.15640000      -1.55760000
H        4.14310000       1.42420000      -1.10440000
H        1.51240000       2.42030000      -2.11380000
H        1.58590000       4.31240000       0.16100000
