17
Properties=species:S:1:pos:R:3 gdb_33431=T pbc="F F F"
C       -0.07120000      -1.19460000      -0.08950000
C       -0.03830000       0.00600000      -0.03630000
C       -0.02220000       1.46330000       0.00530000
C       -1.00290000       1.99840000      -0.93150000
C       -1.81840000       2.41410000      -1.71100000
C        0.08670000       2.15600000       1.42980000
C        1.54110000       1.61360000       1.51650000
C        1.39270000       2.18020000       0.07630000
C        0.67440000       3.40370000       0.71210000
H       -0.10060000      -2.25510000      -0.13650000
H       -2.53860000       2.78110000      -2.39950000
H       -0.69040000       2.12310000       2.19380000
H        2.21230000       2.16940000       2.17410000
H        1.66860000       0.53630000       1.62020000
H        2.12880000       2.17530000      -0.72780000
H        0.00250000       3.97730000       0.07400000
H        1.30200000       4.04950000       1.32920000
