13
Properties=species:S:1:pos:R:3 gdb_4409=T pbc="F F F"
N        0.01150000       1.37170000       0.15730000
C       -0.03400000       0.00560000       0.05600000
N       -1.19490000      -0.59850000       0.03590000
C       -1.15090000      -1.96240000      -0.00190000
C       -0.01940000      -2.72020000      -0.03860000
C        1.27210000      -2.07960000      -0.02250000
O        2.37980000      -2.58070000      -0.04130000
N        1.15050000      -0.66190000       0.02930000
H        0.80330000       1.85530000      -0.23640000
H       -0.88140000       1.81180000      -0.00660000
H       -2.12580000      -2.44370000      -0.00850000
H       -0.04860000      -3.80050000      -0.07440000
H        2.03220000      -0.16940000       0.08830000
