15
Properties=species:S:1:pos:R:3 gdb_52029=T pbc="F F F"
O       -0.24350000       0.13580000       0.39040000
C       -0.01230000       1.18520000      -0.14670000
C        1.31970000       1.91390000      -0.05000000
N        1.59700000       2.61990000      -1.29920000
C        2.70860000       3.57150000      -1.26410000
C        2.73170000       4.25630000      -2.65120000
O        3.59580000       4.05510000      -3.45530000
C        2.48760000       4.59230000      -0.23460000
N        2.32520000       5.41620000       0.55900000
H       -0.77110000       1.72390000      -0.75630000
H        1.20820000       2.66060000       0.74860000
H        2.09810000       1.20470000       0.26750000
H        1.78820000       1.95110000      -2.03910000
H        3.69870000       3.11790000      -1.09830000
H        1.85100000       4.89900000      -2.84760000
