20
Properties=species:S:1:pos:R:3 gdb_104325=T pbc="F F F"
O       -0.10630000       1.44890000       0.08170000
C        0.00510000       0.03000000      -0.02680000
C       -1.42140000      -0.51550000      -0.04410000
O       -2.09440000      -0.06870000       1.12970000
C       -2.22390000      -0.14520000      -1.31870000
C       -3.22830000      -1.31130000      -1.45300000
N       -2.62200000      -2.51140000      -0.83960000
C       -1.24950000      -2.77140000      -1.28800000
C       -1.49410000      -2.03400000      -0.01970000
H        0.74690000       1.80770000       0.34040000
H        0.54310000      -0.25940000      -0.94020000
H        0.53790000      -0.38770000       0.83900000
H       -1.85060000       0.86160000       1.22380000
H       -2.71500000       0.82210000      -1.20240000
H       -1.56540000      -0.07390000      -2.18970000
H       -4.13980000      -1.09400000      -0.88830000
H       -3.51290000      -1.51960000      -2.48890000
H       -0.95240000      -3.81530000      -1.24790000
H       -0.85780000      -2.22930000      -2.14550000
H       -1.34440000      -2.50880000       0.94500000
