17
Properties=species:S:1:pos:R:3 gdb_4541=T pbc="F F F"
C       -0.04560000       1.45910000       0.02260000
N        0.04090000       0.01520000       0.00520000
C        0.04210000      -0.79510000      -1.12190000
C        0.05800000      -2.10710000      -0.72320000
C        0.08250000      -3.31000000      -1.61600000
C        0.05560000      -2.10930000       0.71070000
C        0.04120000      -0.79320000       1.10550000
O        0.02550000      -0.19250000       2.32650000
H        0.46410000       1.86210000      -0.85580000
H       -1.08530000       1.80840000       0.01620000
H        0.44190000       1.84350000       0.92000000
H        0.03800000      -0.35600000      -2.10690000
H        0.97780000      -3.92240000      -1.45270000
H       -0.78310000      -3.96180000      -1.44610000
H        0.07210000      -3.01700000      -2.67020000
H        0.07270000      -2.97140000       1.36080000
H        0.09990000      -0.87860000       2.99600000
