16
Properties=species:S:1:pos:R:3 gdb_57027=T pbc="F F F"
C       -0.04490000       1.46420000      -0.16460000
C        0.00330000      -0.05920000       0.06530000
C        0.79630000      -0.39370000       1.25090000
N        1.41560000      -0.63330000       2.19640000
C       -1.41720000      -0.63780000       0.20810000
O       -2.22700000      -0.38390000      -0.95940000
C       -2.48380000      -1.78210000      -1.22290000
C       -1.60180000      -2.15160000      -0.02330000
O       -1.20790000      -3.15170000       0.48570000
H        0.96030000       1.85920000      -0.32740000
H       -0.65900000       1.67350000      -1.04260000
H       -0.47990000       1.97260000       0.70020000
H        0.47820000      -0.53480000      -0.80170000
H       -1.88970000      -0.26220000       1.12580000
H       -3.54280000      -2.04730000      -1.11800000
H       -2.11990000      -2.10770000      -2.20460000
