21
Properties=species:S:1:pos:R:3 gdb_115720=T pbc="F F F"
C        0.03020000       1.59820000       0.30240000
O        0.61300000       0.35800000      -0.03440000
C        0.77780000      -0.49330000       1.05800000
C       -0.43690000      -1.29950000       1.57450000
O        0.27920000      -2.54660000       1.38940000
C        1.37880000      -1.87330000       0.71310000
C        1.43590000      -2.28320000      -0.76800000
C        2.25260000      -3.56570000      -0.95690000
O        0.12400000      -2.43270000      -1.28310000
H        0.62960000       2.13530000       1.05440000
H       -0.01240000       2.19400000      -0.61170000
H       -0.99100000       1.48030000       0.69460000
H        1.31900000       0.01890000       1.86750000
H       -0.73230000      -1.15820000       2.61930000
H       -1.31240000      -1.22750000       0.91870000
H        2.33290000      -2.08990000       1.20750000
H        1.89280000      -1.46180000      -1.33030000
H        1.84380000      -4.37680000      -0.34320000
H        2.21670000      -3.87690000      -2.00390000
H        3.29990000      -3.41810000      -0.67150000
H       -0.34200000      -2.96830000      -0.62670000
