18
Properties=species:S:1:pos:R:3 gdb_89652=T pbc="F F F"
C       -0.01460000       1.52320000       0.02830000
C        0.04700000       0.02470000      -0.00720000
C       -0.83090000      -0.85620000       0.82620000
C        0.66760000      -0.96840000       1.01720000
C        1.25540000      -1.81900000      -0.11780000
C        0.65490000      -0.79740000      -1.14570000
O       -0.30700000      -1.25410000      -2.06740000
C        1.31220000      -0.67030000       2.25140000
N        1.85050000      -0.42100000       3.24630000
H        0.93680000       1.96950000      -0.27950000
H       -0.79440000       1.89090000      -0.64820000
H       -0.24570000       1.88490000       1.03470000
H       -1.36210000      -0.35060000       1.62540000
H       -1.36140000      -1.69250000       0.38120000
H        2.34620000      -1.84570000      -0.12730000
H        0.86120000      -2.83720000      -0.18110000
H        1.45440000      -0.23670000      -1.64770000
H        0.14420000      -1.73430000      -2.76900000
