17
Properties=species:S:1:pos:R:3 gdb_40756=T pbc="F F F"
C       -0.05720000       1.35240000      -0.10490000
O        1.09030000       0.50830000      -0.18820000
C       -0.19140000      -0.10640000      -0.01620000
C       -0.40650000      -0.77370000       1.31030000
O       -1.81450000      -0.89230000       1.67410000
C       -1.69320000      -2.30830000       1.90750000
C       -1.98830000      -3.14570000       0.65720000
O       -0.61380000      -3.00290000       0.20410000
C       -0.23740000      -2.30530000       1.40560000
H       -0.13100000       1.95600000       0.79880000
H       -0.33560000       1.85830000      -1.02780000
H       -0.55320000      -0.65950000      -0.88040000
H        0.15060000      -0.23460000       2.08850000
H       -2.06960000      -2.61970000       2.88260000
H       -2.23020000      -4.19860000       0.84880000
H       -2.71340000      -2.70980000      -0.03750000
H        0.64890000      -2.72140000       1.88590000
