18
Properties=species:S:1:pos:R:3 gdb_102955=T pbc="F F F"
O        0.08270000       1.43540000       0.32550000
C        0.04320000       0.05930000       0.04420000
C       -1.40470000      -0.50140000      -0.04490000
C       -2.10250000      -0.10900000      -1.35610000
O       -2.06030000       1.31680000      -1.47990000
C       -2.84830000       1.87950000      -2.42140000
N       -2.73580000       3.10870000      -2.67270000
C       -1.41400000      -1.95560000       0.07070000
C       -1.39450000      -3.15550000       0.13740000
H       -0.42830000       1.88750000      -0.35700000
H        0.57790000      -0.19820000      -0.88530000
H        0.55950000      -0.44440000       0.86590000
H       -1.96450000      -0.06070000       0.79010000
H       -1.58070000      -0.56810000      -2.20520000
H       -3.14200000      -0.45780000      -1.35600000
H       -3.54820000       1.16970000      -2.88240000
H       -3.41070000       3.38770000      -3.38140000
H       -1.38350000      -4.21460000       0.21650000
