22
Properties=species:S:1:pos:R:3 gdb_118200=T pbc="F F F"
C        1.02430000       0.71620000       0.34550000
N        0.68380000      -0.64450000      -0.07660000
H        1.87280000      -1.89760000      -0.28280000
H        0.18940000      -1.10920000       0.68120000
C       -0.15600000      -0.69460000      -1.28090000
C       -0.29290000      -2.11500000      -1.85280000
C       -1.37470000      -2.11840000      -2.94380000
C        1.03750000      -2.67220000      -2.42790000
C        1.97520000      -3.41880000      -1.47130000
O        2.33860000      -2.77560000      -0.35700000
O        2.38690000      -4.52370000      -1.72170000
H        1.66050000       1.18160000      -0.41320000
H        0.14130000       1.35770000       0.49040000
H        1.58540000       0.67790000       1.28250000
H       -1.15560000      -0.27250000      -1.08610000
H        0.31260000      -0.04940000      -2.03520000
H       -0.63230000      -2.77700000      -1.04330000
H       -2.32970000      -1.74370000      -2.56120000
H       -1.08130000      -1.48630000      -3.79030000
H       -1.53730000      -3.12960000      -3.32660000
H        0.82060000      -3.38620000      -3.22430000
H        1.60360000      -1.84900000      -2.88540000
