18
Properties=species:S:1:pos:R:3 gdb_127534=T pbc="F F F"
C        0.00700000       1.40660000       0.00960000
N       -0.04180000      -0.03920000       0.00210000
N       -0.01170000      -0.73960000      -1.14130000
C        0.04510000      -1.99410000      -0.70610000
C        0.05680000      -3.37350000      -1.28580000
C        0.42910000      -4.22700000      -0.02310000
C        0.07010000      -3.38720000       1.25270000
C        0.05250000      -2.00160000       0.68810000
N        0.00070000      -0.75190000       1.13740000
H        1.04160000       1.76580000       0.00640000
H       -0.50370000       1.77250000      -0.88120000
H       -0.49490000       1.76290000       0.90930000
H       -0.93040000      -3.64800000      -1.67780000
H        0.77300000      -3.51230000      -2.10040000
H       -0.06300000      -5.20230000      -0.02570000
H        1.50780000      -4.41030000      -0.02970000
H       -0.91290000      -3.66600000       1.65210000
H        0.79480000      -3.53480000       2.05810000
