18
Properties=species:S:1:pos:R:3 gdb_61953=T pbc="F F F"
O       -0.15480000       1.37590000      -0.04090000
C       -0.02680000      -0.03650000      -0.00210000
C        0.67280000      -0.57180000      -1.25950000
C       -0.04890000      -0.11100000      -2.53990000
C        0.64790000      -0.52190000      -3.75520000
N        1.21470000      -0.85490000      -4.70570000
C        0.69080000      -0.51970000       1.27640000
C        0.03650000      -0.09090000       2.50500000
C       -0.51130000       0.25790000       3.51560000
H        0.71130000       1.76500000       0.12680000
H       -1.05900000      -0.40630000       0.02130000
H        1.71090000      -0.21650000      -1.28010000
H        0.71320000      -1.66590000      -1.22830000
H       -1.06800000      -0.51440000      -2.56730000
H       -0.14370000       0.97920000      -2.52660000
H        0.75860000      -1.61480000       1.25280000
H        1.72840000      -0.15430000       1.25800000
H       -0.99440000       0.56840000       4.40880000
