18
Properties=species:S:1:pos:R:3 gdb_81527=T pbc="F F F"
C       -0.12220000       1.49370000      -0.00860000
C       -0.02410000      -0.03240000       0.01450000
C       -1.39630000      -0.59460000      -0.31750000
O       -2.32820000      -0.53430000       0.44390000
C        1.24840000      -0.70180000      -0.60420000
N        2.03050000      -0.10900000       0.55240000
C        0.78080000      -0.70480000       1.17900000
C        0.97850000      -1.95490000       0.28920000
O       -0.14200000      -2.77200000       0.08060000
H        0.83960000       1.94340000       0.23620000
H       -0.43580000       1.84580000      -0.99830000
H       -0.87720000       1.82120000       0.71170000
H       -1.52400000      -0.96880000      -1.35840000
H        1.61610000      -0.65010000      -1.63130000
H        2.83380000      -0.71100000       0.76260000
H        0.58360000      -0.65250000       2.24960000
H        1.87710000      -2.54130000       0.52630000
H        0.04510000      -3.37990000      -0.64270000
