14
Properties=species:S:1:pos:R:3 gdb_105588=T pbc="F F F"
O       -0.00470000       1.45540000       0.06990000
C        0.03090000       0.06830000      -0.11480000
C       -1.39620000      -0.53700000      -0.09040000
C       -1.51290000      -2.06260000       0.15780000
O       -2.01750000      -1.81200000       1.51150000
C       -1.96890000      -0.46270000       1.34720000
O       -2.20500000       0.40130000       2.12680000
C       -2.24370000       0.00280000      -1.13920000
N       -2.92200000       0.40110000      -1.98550000
H       -0.42640000       1.64340000       0.91850000
H        0.49180000      -0.11500000      -1.08950000
H        0.63070000      -0.44940000       0.65040000
H       -2.25370000      -2.58610000      -0.44570000
H       -0.56890000      -2.60860000       0.19540000
