16
Properties=species:S:1:pos:R:3 gdb_34245=T pbc="F F F"
N       -0.04010000      -1.12890000       0.08310000
C       -0.06960000       0.02640000       0.04840000
C       -0.07040000       1.46420000      -0.02660000
O       -1.00670000       2.16950000       0.78460000
C       -0.66390000       3.31040000      -0.06910000
C        0.76180000       3.62260000       0.42450000
C        1.33310000       2.27780000      -0.06570000
C        1.14650000       2.39470000      -1.60030000
C       -0.35400000       2.33850000      -1.27780000
H       -1.43180000       4.07960000      -0.09360000
H        1.23810000       4.47640000      -0.06420000
H        0.77120000       3.75820000       1.50700000
H        2.23790000       1.88030000       0.38670000
H        1.55500000       3.28180000      -2.09000000
H        1.46020000       1.49570000      -2.13710000
H       -1.14930000       2.11730000      -1.98570000
