20
Properties=species:S:1:pos:R:3 gdb_115311=T pbc="F F F"
C       -0.07410000       1.65390000       0.11110000
C       -0.00690000       0.14750000      -0.13770000
C       -1.36850000      -0.54230000       0.06190000
N       -2.36940000      -0.13940000      -0.94880000
C       -2.50280000      -1.24970000      -1.91530000
C       -2.31110000      -2.52720000      -1.08230000
O       -1.92340000      -3.67610000      -1.77690000
C       -1.24390000      -2.06030000      -0.09490000
O       -0.39930000      -2.79010000       0.36370000
H        0.89200000       2.12860000      -0.08420000
H       -0.82170000       2.11460000      -0.54080000
H       -0.34920000       1.87160000       1.14970000
H        0.33860000      -0.04650000      -1.16040000
H        0.71390000      -0.33270000       0.53300000
H       -1.72820000      -0.31070000       1.07280000
H       -3.26420000       0.02710000      -0.50450000
H       -3.46480000      -1.19650000      -2.42740000
H       -1.71310000      -1.19280000      -2.67440000
H       -3.23690000      -2.70100000      -0.50040000
H       -1.21060000      -4.07390000      -1.25350000
