18
Properties=species:S:1:pos:R:3 gdb_64518=T pbc="F F F"
C       -0.03260000       1.60790000       0.00490000
C        0.06890000       0.09150000      -0.02970000
C       -1.29190000      -0.56820000       0.09470000
O       -2.33000000       0.03390000       0.20740000
C        0.85720000      -0.62490000      -1.12760000
C        2.29050000      -0.73970000      -0.71670000
C        2.46440000      -0.12010000       0.65580000
C        1.05540000      -0.68590000       0.90740000
N        1.28930000      -1.74430000      -0.21760000
H        0.93810000       2.08160000      -0.15440000
H       -0.71780000       1.95710000      -0.77250000
H       -0.43840000       1.94800000       0.96220000
H       -1.26520000      -1.67890000       0.07790000
H        0.53350000      -0.82340000      -2.14380000
H        3.05760000      -1.02560000      -1.42740000
H        3.20420000      -0.67780000       1.23570000
H        2.64250000       0.95320000       0.76240000
H        0.73840000      -1.01200000       1.89660000
