22
Properties=species:S:1:pos:R:3 gdb_114760=T pbc="F F F"
C       -0.11850000       1.52380000       0.18880000
C       -0.07240000       0.00960000      -0.03710000
C        0.73740000      -0.42570000      -1.27360000
C        1.02260000      -1.94410000      -1.23280000
C        1.60890000      -2.47710000      -2.53510000
N        0.66600000      -3.18180000      -3.43210000
C        1.18570000      -1.83910000      -3.80500000
C        0.24260000      -0.69640000      -3.71840000
C        0.05360000      -0.04410000      -2.57090000
H        0.88940000       1.93190000       0.32470000
H       -0.57570000       2.05310000      -0.65350000
H       -0.69990000       1.76960000       1.08280000
H        0.36550000      -0.46840000       0.84840000
H       -1.09260000      -0.38720000      -0.12330000
H        1.70320000       0.10430000      -1.23190000
H        1.69420000      -2.16630000      -0.39580000
H        0.08210000      -2.47210000      -1.04120000
H        2.62400000      -2.86330000      -2.48490000
H        1.16910000      -3.88970000      -3.96380000
H        1.90030000      -1.80480000      -4.62540000
H       -0.28340000      -0.39750000      -4.62160000
H       -0.62880000       0.80200000      -2.54450000
