17
Properties=species:S:1:pos:R:3 gdb_16145=T pbc="F F F"
O       -0.47990000       0.67150000       0.71610000
C        0.21830000       0.98240000      -0.21830000
C        1.38490000       1.89410000      -0.11950000
C        1.89010000       2.35350000       1.23760000
C        2.76030000       3.59610000       0.93790000
C        2.16830000       4.20480000      -0.35470000
C        1.57000000       3.02420000      -1.10490000
N        2.34050000       1.79800000      -1.24570000
H        0.03200000       0.60710000      -1.24830000
H        1.02140000       2.60580000       1.85420000
H        2.43940000       1.57070000       1.77050000
H        2.76870000       4.30830000       1.76600000
H        3.80310000       3.30290000       0.77700000
H        1.36390000       4.91260000      -0.12250000
H        2.91210000       4.74740000      -0.94810000
H        0.85900000       3.21020000      -1.90530000
H        3.29610000       1.90600000      -0.91360000
