18
Properties=species:S:1:pos:R:3 gdb_65004=T pbc="F F F"
C       -0.14270000       1.49380000      -0.41210000
C       -0.00910000       0.02260000      -0.08880000
C        0.92910000      -0.81900000      -0.87000000
N        1.22060000      -0.47720000       0.53740000
C       -1.27700000      -0.65810000       0.47230000
C       -1.74740000      -0.00160000       1.69780000
C       -2.11470000       0.54200000       2.70370000
C       -2.33550000      -0.72880000      -0.54220000
C       -3.18380000      -0.79040000      -1.39010000
H        0.78230000       1.87800000      -0.85280000
H       -0.95570000       1.66200000      -1.12520000
H       -0.36360000       2.06990000       0.49190000
H        0.71010000      -1.86820000      -1.04930000
H        1.50240000      -0.33840000      -1.65830000
H        1.91480000       0.26450000       0.58480000
H       -0.97800000      -1.68130000       0.73530000
H       -2.44730000       1.01380000       3.59510000
H       -3.94140000      -0.84780000      -2.13210000
