20
Properties=species:S:1:pos:R:3 gdb_120824=T pbc="F F F"
C       -0.42430000       1.45520000      -0.05830000
C       -0.43370000      -0.03030000      -0.36960000
O       -1.36630000      -0.65900000       0.50940000
C       -1.46250000      -2.02520000       0.32510000
C       -2.78940000      -2.63790000       0.67040000
C       -2.34640000      -2.56070000      -0.77570000
O       -2.92250000      -1.60380000      -1.62450000
C       -4.20010000      -1.82800000      -2.00730000
N       -4.73860000      -1.07190000      -2.86070000
H        0.28720000       1.97330000      -0.70830000
H       -1.41710000       1.88400000      -0.21940000
H       -0.13670000       1.63070000       0.98230000
H       -0.72770000      -0.21190000      -1.41120000
H        0.56730000      -0.46650000      -0.21940000
H       -0.55290000      -2.58950000       0.53960000
H       -2.82660000      -3.60460000       1.15930000
H       -3.54980000      -1.92790000       0.97610000
H       -2.04960000      -3.47630000      -1.28260000
H       -4.65800000      -2.68800000      -1.50200000
H       -5.69850000      -1.36730000      -3.02710000
