20
Properties=species:S:1:pos:R:3 gdb_38101=T pbc="F F F"
C       -0.02330000       1.54890000      -0.00920000
C        1.54190000       1.50570000       0.02450000
C        1.41420000       0.05630000       0.60000000
C       -0.02910000      -0.00010000       0.01670000
C       -0.04310000      -0.66620000      -1.34750000
N       -0.61020000       0.05870000      -2.49200000
C        0.85010000      -0.25600000      -2.46630000
C        1.83270000       0.85840000      -2.41290000
C        2.14930000       1.60250000      -1.34910000
H       -0.43140000       1.95690000       0.91960000
H       -0.49030000       2.03160000      -0.86730000
H        2.02040000       2.22760000       0.68970000
H        2.12990000      -0.68870000       0.24350000
H        1.41660000       0.06490000       1.69350000
H       -0.79580000      -0.45940000       0.64780000
H       -0.23870000      -1.73740000      -1.29510000
H       -1.08850000      -0.58230000      -3.12020000
H        1.15510000      -1.06170000      -3.13320000
H        2.34210000       1.06080000      -3.35310000
H        2.89110000       2.38610000      -1.48730000
