18
Properties=species:S:1:pos:R:3 gdb_73600=T pbc="F F F"
C       -0.00710000       1.48720000      -0.01600000
C       -0.01710000      -0.02000000       0.03690000
C       -1.31730000      -0.75730000      -0.25910000
O       -1.17950000      -2.05810000       0.29320000
C       -0.29160000      -1.99620000       1.40280000
C        0.64870000      -0.84450000       1.10650000
C        1.25670000      -0.79580000      -0.29010000
C        1.28460000      -1.93240000      -1.17020000
N        1.35540000      -2.82590000      -1.90170000
H        0.95960000       1.89130000       0.29850000
H       -0.20460000       1.84960000      -1.03070000
H       -0.77600000       1.90400000       0.64380000
H       -2.15140000      -0.20580000       0.20600000
H       -1.53130000      -0.87550000      -1.32610000
H       -0.83030000      -1.79550000       2.34290000
H        0.19830000      -2.97140000       1.48260000
H        1.21230000      -0.39530000       1.91600000
H        2.14690000      -0.17940000      -0.37450000
