16
Properties=species:S:1:pos:R:3 gdb_64071=T pbc="F F F"
C        0.15410000       1.53800000       0.01120000
C       -0.08630000       0.01920000      -0.03950000
O       -1.46180000      -0.28230000      -0.06340000
C        0.64700000      -0.63680000      -1.23360000
N        1.91800000      -1.07030000      -0.65670000
C        1.96810000      -1.16720000       0.70540000
O        2.87050000      -1.58100000       1.39290000
C        0.59620000      -0.63560000       1.16330000
O        0.09760000      -0.75860000       2.24950000
H        1.22010000       1.78150000      -0.04300000
H       -0.36020000       2.00690000      -0.83210000
H       -0.24860000       1.94920000       0.94130000
H       -1.74150000      -0.35000000       0.86070000
H        0.05150000      -1.47960000      -1.60140000
H        0.81370000       0.06200000      -2.05830000
H        2.67810000      -1.42030000      -1.21990000
