20
Properties=species:S:1:pos:R:3 gdb_9379=T pbc="F F F"
C        0.06610000       1.57170000       0.04460000
C        0.02720000       0.04140000       0.03790000
C       -1.39750000      -0.52250000      -0.01990000
C       -1.43490000      -2.05320000      -0.03140000
C       -2.87370000      -2.62880000      -0.05240000
N       -3.70000000      -2.30180000      -1.21790000
C       -2.81440000      -4.09440000       0.08630000
N       -2.72610000      -5.24150000       0.19220000
H        1.09460000       1.94290000       0.08400000
H       -0.40230000       1.98450000      -0.85580000
H       -0.46780000       1.97830000       0.91060000
H        0.59950000      -0.33770000      -0.81880000
H        0.53180000      -0.34390000       0.93320000
H       -1.97080000      -0.14990000       0.84110000
H       -1.89880000      -0.13120000      -0.91510000
H       -0.89170000      -2.43990000      -0.90340000
H       -0.91760000      -2.44250000       0.85410000
H       -3.40690000      -2.25050000       0.83020000
H       -3.84400000      -1.29850000      -1.26150000
H       -3.22130000      -2.57400000      -2.07200000
