16
Properties=species:S:1:pos:R:3 gdb_15871=T pbc="F F F"
C        0.00520000       1.48460000      -0.01240000
N       -0.03260000       0.04460000       0.12520000
C       -1.29160000      -0.62480000       0.50810000
C       -0.46030000      -1.66420000       1.30360000
O       -0.18510000      -2.86840000       0.65590000
C        0.67850000      -0.57890000       1.25650000
C        2.04310000      -1.01700000       0.97900000
N        3.11720000      -1.37590000       0.74850000
H        1.02970000       1.80900000      -0.21860000
H       -0.62090000       1.78710000      -0.85740000
H       -0.35350000       2.01240000       0.89070000
H       -1.93350000      -0.01520000       1.16510000
H       -1.88700000      -1.00580000      -0.32770000
H       -0.81470000      -1.91830000       2.30210000
H        0.16440000      -2.67360000      -0.22220000
H        0.67470000       0.03390000       2.17360000
