17
Properties=species:S:1:pos:R:3 gdb_31671=T pbc="F F F"
C        0.19710000       1.36640000      -0.48780000
C       -0.02240000       0.04690000       0.27440000
C       -1.43500000      -0.43940000       0.21270000
N       -2.35030000      -0.28020000       1.13440000
C       -3.50400000      -0.85180000       0.63020000
C       -4.78460000      -0.90510000       1.33370000
O       -5.01080000      -0.46320000       2.43530000
C       -3.26660000      -1.36540000      -0.62760000
N       -1.95210000      -1.09810000      -0.88440000
H        1.23730000       1.69280000      -0.39890000
H       -0.03090000       1.25840000      -1.55350000
H       -0.44640000       2.15320000      -0.08500000
H        0.65390000      -0.72420000      -0.11520000
H        0.22030000       0.18360000       1.33100000
H       -5.58210000      -1.41340000       0.74130000
H       -3.89960000      -1.88420000      -1.32930000
H       -1.44970000      -1.34730000      -1.72110000
