16
Properties=species:S:1:pos:R:3 gdb_25727=T pbc="F F F"
C        0.17830000       1.51750000       0.11770000
C        0.08510000       0.03300000      -0.00020000
C       -0.04300000      -0.73320000      -1.14540000
N       -0.05430000      -2.05050000      -0.69990000
C        0.03950000      -2.01260000       0.65190000
N        0.14350000      -0.78210000       1.10520000
C       -0.11810000      -0.35580000      -2.56150000
N        0.12430000      -1.39470000      -3.45650000
O       -0.41060000       0.76270000      -2.94370000
H        1.13570000       1.81000000       0.56240000
H        0.07090000       1.98640000      -0.86020000
H       -0.60900000       1.89260000       0.78010000
H       -0.27910000      -2.85450000      -1.26270000
H        0.02430000      -2.90790000       1.25640000
H        0.82830000      -2.07250000      -3.20200000
H        0.19030000      -1.07720000      -4.41410000
