17
Properties=species:S:1:pos:R:3 gdb_51490=T pbc="F F F"
O       -0.65430000       0.88100000       0.76490000
C        0.05450000       1.03310000      -0.19590000
C        1.33390000       1.83710000      -0.21820000
C        1.25610000       3.00500000      -1.22890000
C        0.27570000       4.09820000      -0.82840000
C        0.84630000       5.30390000      -0.78120000
C        2.30410000       5.19540000      -1.09140000
O        3.02420000       4.37170000      -0.14040000
C        2.57330000       3.77370000      -1.35580000
H       -0.21050000       0.57350000      -1.17890000
H        1.55300000       2.21310000       0.78290000
H        2.14320000       1.16060000      -0.52730000
H        0.98590000       2.59570000      -2.21390000
H       -0.75410000       3.87860000      -0.56850000
H        0.35600000       6.23340000      -0.52060000
H        2.87820000       6.01210000      -1.51720000
H        3.35480000       3.41860000      -2.02270000
