18
Properties=species:S:1:pos:R:3 gdb_19848=T pbc="F F F"
C        0.06920000       1.45580000      -0.20130000
C        1.30520000       0.71100000       0.20250000
C       -0.03890000      -0.04250000       0.02460000
C        0.52760000      -0.67880000      -1.21400000
C        0.35300000      -1.07530000      -2.47010000
C        1.65310000      -0.81840000      -3.24060000
C        2.40620000       0.23770000      -2.35700000
C        1.90920000      -0.13610000      -0.95140000
H       -0.36980000       2.06980000       0.57990000
H       -0.04910000       1.85700000      -1.20380000
H        1.81960000       0.93880000       1.12830000
H       -0.70420000      -0.46320000       0.76760000
H       -0.54550000      -1.46030000      -2.93790000
H        2.25230000      -1.73380000      -3.35590000
H        1.46060000      -0.44830000      -4.25370000
H        3.49210000       0.20150000      -2.48430000
H        2.06620000       1.24270000      -2.63180000
H        2.54590000      -0.91050000      -0.50110000
