16
Properties=species:S:1:pos:R:3 gdb_74578=T pbc="F F F"
C        0.05000000       1.47220000      -0.08830000
C        0.00120000      -0.01520000      -0.13460000
N        0.15640000      -0.74380000      -1.17000000
C        0.02150000      -2.13190000      -0.73300000
C       -0.30660000      -2.02840000       0.79760000
C       -1.75150000      -2.53330000       0.56200000
C       -1.41170000      -2.70210000      -0.93870000
O       -2.00530000      -3.14050000      -1.87480000
O       -0.21550000      -0.62280000       1.07170000
H        0.81410000       1.80200000       0.62230000
H        0.27360000       1.86290000      -1.08010000
H       -0.90910000       1.87190000       0.25610000
H        0.84170000      -2.75670000      -1.09580000
H        0.29170000      -2.56900000       1.52960000
H       -2.00860000      -3.47490000       1.05610000
H       -2.53130000      -1.79800000       0.78040000
