19
Properties=species:S:1:pos:R:3 gdb_113353=T pbc="F F F"
C        0.29890000       1.18680000       0.54280000
C       -0.45760000       0.06380000      -0.18010000
C        0.32300000      -0.48020000      -1.35630000
O        1.58780000      -1.12810000      -1.10350000
C        0.53680000      -1.92070000      -1.65330000
C        0.02210000      -3.05860000      -0.80340000
O        0.87560000      -4.18520000      -0.90680000
C        0.39700000       0.40310000      -2.57330000
O       -0.32530000       1.34460000      -2.77650000
H        1.26440000       0.82780000       0.91080000
H        0.47840000       2.03360000      -0.12530000
H       -0.27920000       1.54990000       1.39700000
H       -0.69340000      -0.73770000       0.52330000
H       -1.40640000       0.44620000      -0.57070000
H        0.70350000      -2.20600000      -2.69510000
H       -0.09480000      -2.73650000       0.23860000
H       -0.95660000      -3.38130000      -1.17420000
H        1.73520000      -3.92760000      -0.55560000
H        1.19690000       0.09920000      -3.28470000
