19
Properties=species:S:1:pos:R:3 gdb_48594=T pbc="F F F"
O        0.02360000      -0.06950000      -0.23450000
C        0.06940000       1.13110000      -0.12390000
C        1.32590000       1.92540000      -0.06830000
C        1.75860000       2.93020000       1.05840000
C        2.90170000       2.96670000      -0.00170000
C        2.79290000       1.41070000      -0.08030000
C        1.79270000       3.02270000      -1.06820000
C        1.81990000       3.07420000      -2.55310000
C        1.09110000       4.14890000      -1.74050000
H       -0.86470000       1.73720000      -0.05690000
H        1.15710000       3.83520000       1.16530000
H        2.00060000       2.47850000       2.02380000
H        3.81290000       3.56460000       0.03400000
H        3.11160000       0.85580000       0.80500000
H        3.13290000       0.93900000      -1.00350000
H        2.74430000       3.35550000      -3.04830000
H        1.21240000       2.37250000      -3.11620000
H        0.00620000       4.15450000      -1.77750000
H        1.53600000       5.13840000      -1.69810000
