23
Properties=species:S:1:pos:R:3 gdb_94545=T pbc="F F F"
C        0.44490000       0.74450000      -0.73400000
C        1.58430000      -0.06670000      -0.15250000
O        2.83010000       0.68560000      -0.07120000
C        3.20870000      -0.06320000       1.10710000
C        1.73900000      -0.47740000       1.34660000
C        1.01650000       0.36660000       2.41490000
C       -0.48590000       0.05220000       2.45210000
C        1.62160000       0.08260000       3.80170000
O        1.15170000       1.77170000       2.14860000
H        0.18780000       1.59990000      -0.10870000
H        0.74330000       1.10560000      -1.72410000
H       -0.44300000       0.11740000      -0.86380000
H        1.75000000      -0.95420000      -0.78420000
H        3.87100000      -0.90240000       0.85510000
H        3.69900000       0.57070000       1.85190000
H        1.57150000      -1.53720000       1.55450000
H       -0.66120000      -0.98500000       2.75530000
H       -0.97610000       0.70840000       3.17700000
H       -0.95700000       0.21380000       1.48130000
H        2.68890000       0.31930000       3.82840000
H        1.12490000       0.70800000       4.54860000
H        1.49320000      -0.96650000       4.08880000
H        1.83000000       1.89820000       1.47400000
