13
Properties=species:S:1:pos:R:3 gdb_132167=T pbc="F F F"
N        0.02730000       1.36700000       0.15260000
C       -0.02220000      -0.00220000       0.04600000
C       -1.13920000      -0.75160000       0.00980000
O       -1.07930000      -2.14080000      -0.03390000
C        0.13310000      -2.66940000      -0.03240000
F        0.04180000      -3.97570000      -0.05690000
N        1.26220000      -2.09560000      -0.01540000
C        1.28470000      -0.69540000       0.00550000
N        2.35060000       0.00740000      -0.01920000
H        0.94290000       1.73280000      -0.07680000
H       -0.75390000       1.89570000      -0.20120000
H       -2.16110000      -0.40590000       0.01990000
H        3.16940000      -0.60020000      -0.05460000
