23
Properties=species:S:1:pos:R:3 gdb_103856=T pbc="F F F"
C       -0.52800000       1.38980000       0.22460000
C        0.38970000       0.22390000      -0.16830000
C        1.00540000      -0.47490000       1.03360000
C        2.05490000       0.31900000       1.78770000
O        0.06570000      -1.16260000       1.88540000
C        1.02270000      -1.94750000       1.16030000
C        0.50870000      -2.92730000       0.16140000
C        1.47390000      -3.90790000      -0.46500000
C        0.45590000      -4.39210000       0.53150000
H        0.01870000       2.18930000       0.73400000
H       -0.99960000       1.82620000      -0.66090000
H       -1.31750000       1.03970000       0.89580000
H       -0.18450000      -0.49410000      -0.75890000
H        1.19930000       0.58370000      -0.81610000
H        1.64490000       1.26450000       2.15680000
H        2.41910000      -0.24640000       2.64900000
H        2.90590000       0.55310000       1.13860000
H        1.81380000      -2.36210000       1.79350000
H       -0.29870000      -2.56950000      -0.46680000
H        1.33930000      -4.15670000      -1.51150000
H        2.51170000      -3.86570000      -0.15050000
H        0.80510000      -4.67450000       1.51930000
H       -0.38420000      -4.97610000       0.17320000
