12
Properties=species:S:1:pos:R:3 gdb_4635=T pbc="F F F"
N       -0.06410000       1.30150000       0.00760000
C       -0.00550000       0.04150000       0.00110000
N       -1.10000000      -0.82120000       0.00260000
C       -0.66900000      -2.11930000      -0.00610000
C        0.68440000      -2.09270000      -0.01310000
O        1.10560000      -0.77040000      -0.00890000
C        1.62880000      -3.18690000      -0.02350000
O        2.83510000      -3.07990000      -0.02940000
H        0.86510000       1.71330000       0.00470000
H       -2.04730000      -0.48570000       0.00940000
H       -1.34110000      -2.96140000      -0.00660000
H        1.12050000      -4.17710000      -0.02570000
