16
Properties=species:S:1:pos:R:3 gdb_80942=T pbc="F F F"
C        0.07220000       1.42510000      -0.04680000
C        0.01380000      -0.05860000       0.09740000
O        0.62390000      -0.91200000      -0.97290000
C        0.07720000      -1.87710000       0.00910000
C        0.70250000      -1.00870000       1.13580000
O        2.08040000      -0.95590000       1.23180000
C       -1.21810000      -1.02110000       0.05500000
C       -2.12620000      -1.09890000       1.18510000
N       -2.84870000      -1.15120000       2.08630000
H        1.10890000       1.76650000       0.03010000
H       -0.33390000       1.74140000      -1.01170000
H       -0.50690000       1.89920000       0.75150000
H        0.17540000      -2.93770000      -0.21770000
H        0.27420000      -1.07230000       2.13710000
H        2.40390000      -0.91980000       0.31950000
H       -1.74400000      -0.99720000      -0.89970000
