19
Properties=species:S:1:pos:R:3 gdb_87646=T pbc="F F F"
C        0.13770000       1.59750000       0.23920000
C       -0.01700000       0.09540000       0.14350000
C        1.14260000      -0.76980000      -0.35000000
C        0.71760000      -0.80740000       1.07480000
O        1.57300000      -0.26730000       2.11920000
C        1.16530000      -1.24120000       3.00190000
O        1.48630000      -1.37050000       4.13880000
C        0.24900000      -1.93860000       1.98720000
C       -1.22520000      -2.04410000       2.35780000
H        1.13320000       1.86500000       0.60330000
H       -0.00930000       2.06870000      -0.73790000
H       -0.59320000       2.02500000       0.93350000
H       -1.00900000      -0.24810000      -0.14250000
H        0.93330000      -1.62820000      -0.98010000
H        2.07690000      -0.26220000      -0.56840000
H        0.65450000      -2.91440000       1.70140000
H       -1.63510000      -1.06910000       2.63650000
H       -1.81160000      -2.43520000       1.52060000
H       -1.35240000      -2.72220000       3.20630000
