21
Properties=species:S:1:pos:R:3 gdb_117777=T pbc="F F F"
C        0.12160000       1.64850000       0.05890000
C        0.00250000       0.12180000       0.02980000
C        0.60900000      -0.48060000      -1.24230000
C        0.68510000      -2.02620000      -1.25200000
O        1.35380000      -2.53350000      -0.09630000
C       -0.71410000      -2.68750000      -1.21010000
O       -1.52710000      -2.29980000      -2.29570000
C        1.36570000      -2.46790000      -2.48180000
C        1.90690000      -2.82610000      -3.49520000
H        1.16990000       1.96650000       0.02470000
H       -0.38870000       2.10380000      -0.79700000
H       -0.32200000       2.06270000       0.96960000
H        0.50030000      -0.31100000       0.90400000
H       -1.05500000      -0.15600000       0.10430000
H        0.03490000      -0.16830000      -2.12100000
H        1.62790000      -0.09500000      -1.38150000
H        2.27940000      -2.27200000      -0.15070000
H       -0.56970000      -3.77510000      -1.15910000
H       -1.22630000      -2.37300000      -0.29810000
H       -1.08870000      -2.59880000      -3.10120000
H        2.39930000      -3.14410000      -4.38150000
