15
Properties=species:S:1:pos:R:3 gdb_47885=T pbc="F F F"
O       -0.01750000       1.41350000       1.64800000
C       -0.07280000       1.59530000       0.46110000
C       -1.38240000       1.72880000      -0.31250000
O       -1.14770000       2.01540000      -1.67960000
C       -0.78950000       3.35280000      -1.91680000
O        0.29120000       3.77480000      -1.12480000
C        1.42160000       2.92630000      -1.21570000
C        1.22570000       1.64890000      -0.40260000
O        2.02330000       0.75010000      -0.37440000
H       -1.90440000       0.76730000      -0.27490000
H       -2.01650000       2.48340000       0.17410000
H       -0.54850000       3.39980000      -2.98690000
H       -1.61010000       4.04010000      -1.67220000
H        1.66860000       2.66200000      -2.25370000
H        2.26720000       3.47790000      -0.79250000
