21
Properties=species:S:1:pos:R:3 gdb_91904=T pbc="F F F"
C        0.09480000       1.58490000      -0.01880000
C       -0.03120000       0.05550000       0.00850000
C        0.52640000      -0.56680000      -1.29000000
C        0.71680000      -2.07370000      -1.19400000
O        2.04560000      -2.53060000      -0.90580000
C        1.03190000      -2.66090000       0.11320000
C        1.13940000      -1.76630000       1.30220000
C        1.81160000      -2.33130000       2.52220000
C        0.63380000      -0.53160000       1.23540000
H        1.14680000       1.88910000      -0.05440000
H       -0.40660000       2.00450000      -0.89700000
H       -0.35480000       2.03540000       0.87230000
H       -1.10560000      -0.18210000       0.06520000
H       -0.13310000      -0.32170000      -2.12960000
H        1.50430000      -0.12250000      -1.50830000
H        0.19530000      -2.68680000      -1.92840000
H        0.75460000      -3.69660000       0.31560000
H        2.84740000      -2.61680000       2.29990000
H        1.82420000      -1.61100000       3.34460000
H        1.30510000      -3.24010000       2.87190000
H        0.68970000       0.11270000       2.11190000
