16
Properties=species:S:1:pos:R:3 gdb_76520=T pbc="F F F"
O        0.02740000       1.40770000       0.18930000
C        0.04630000       0.01090000       0.04670000
C       -0.51930000      -0.79700000       1.20720000
O       -0.94670000      -0.10770000       2.33950000
C       -1.30040000      -0.63450000      -0.07250000
C       -2.63190000       0.11190000      -0.16980000
N       -3.42500000      -0.70710000      -1.10550000
C       -2.67570000      -1.66470000      -1.45390000
O       -1.41180000      -1.75330000      -0.95540000
H        0.88400000       1.68370000       0.53440000
H        0.86200000      -0.40490000      -0.54120000
H       -0.08330000      -1.76570000       1.43300000
H       -0.81900000       0.83250000       2.15000000
H       -3.13080000       0.17730000       0.80270000
H       -2.52100000       1.12920000      -0.55850000
H       -2.93910000      -2.46170000      -2.13970000
