13
Properties=species:S:1:pos:R:3 gdb_992=T pbc="F F F"
N        0.21960000       1.41020000      -0.04970000
C        0.05030000      -0.00790000      -0.01450000
C       -1.06920000      -0.80970000       0.09920000
N       -0.64540000      -2.10870000       0.07840000
C        0.73140000      -2.17150000      -0.04700000
C        1.17790000      -0.87330000      -0.10600000
O        2.45720000      -0.43660000      -0.22940000
H       -0.11880000       1.85710000       0.79610000
H       -0.27000000       1.83480000      -0.83040000
H       -2.11410000      -0.55970000       0.19160000
H       -1.24600000      -2.90960000       0.14450000
H        1.25720000      -3.10980000      -0.08230000
H        2.38450000       0.53030000      -0.23660000
