16
Properties=species:S:1:pos:R:3 gdb_29413=T pbc="F F F"
N       -0.14670000       1.47580000       0.18340000
C       -0.06290000       0.07800000       0.05430000
C       -1.10450000      -0.81370000      -0.04960000
N       -0.56090000      -2.09580000      -0.02370000
C        0.80240000      -2.00030000       0.04850000
N        1.57940000      -3.16320000       0.05220000
C        2.94570000      -3.21740000      -0.00300000
O        3.68780000      -2.26440000      -0.08130000
C        1.15310000      -0.67120000       0.11380000
H        0.65230000       1.94320000      -0.22570000
H       -0.99150000       1.85530000      -0.22470000
H       -2.17000000      -0.66470000      -0.09710000
H       -1.07120000      -2.92880000      -0.25780000
H        1.09860000      -4.04240000       0.16590000
H        3.29990000      -4.26600000       0.03340000
H        2.15600000      -0.29470000       0.21220000
