17
Properties=species:S:1:pos:R:3 gdb_46752=T pbc="F F F"
O       -0.02090000      -0.04530000       0.08050000
C       -0.00140000       1.16620000       0.04000000
N       -1.09770000       1.98600000      -0.00420000
C       -0.86560000       3.42190000       0.07350000
C        0.67540000       3.53920000       0.03090000
C        1.42850000       3.75180000       1.36190000
N        0.88580000       2.75260000       2.31060000
C        1.93530000       2.35300000       1.34330000
C        1.22120000       2.07790000       0.00360000
H       -2.01520000       1.58210000       0.10530000
H       -1.34000000       3.93980000      -0.76860000
H       -1.26660000       3.83880000       1.00480000
H        1.03730000       4.17900000      -0.77350000
H        1.89370000       4.66340000       1.71630000
H        1.34500000       2.90170000       3.20790000
H        2.87460000       1.93610000       1.68220000
H        1.89760000       1.82350000      -0.81240000
