18
Properties=species:S:1:pos:R:3 gdb_36578=T pbc="F F F"
C        0.23070000      -1.23390000      -0.08110000
C        0.14320000      -0.03410000      -0.05000000
C        0.00730000       1.39910000      -0.03350000
C       -1.11290000       1.95260000      -0.90680000
C       -2.49810000       1.43830000      -0.46240000
C       -3.58010000       1.96260000      -1.29090000
N       -4.42350000       2.39020000      -1.95530000
C        0.32880000       2.12500000       1.26820000
C        1.27590000       2.22640000       0.10880000
H        0.32010000      -2.29190000      -0.10460000
H       -1.09890000       3.04610000      -0.86130000
H       -0.94250000       1.67220000      -1.95130000
H       -2.51580000       0.34390000      -0.50380000
H       -2.68710000       1.71790000       0.58030000
H       -0.28010000       2.98940000       1.51210000
H        0.61970000       1.52110000       2.11890000
H        2.21430000       1.68840000       0.16440000
H        1.31890000       3.15860000      -0.44390000
