21
Properties=species:S:1:pos:R:3 gdb_88073=T pbc="F F F"
C       -0.06660000       1.53560000       0.01540000
C       -0.01610000       0.02300000       0.06300000
C        1.26520000      -0.72230000      -0.24270000
C        0.70740000      -0.71660000       1.16020000
C        1.42060000       0.01150000       2.30650000
O        1.76370000      -0.98390000       3.27230000
C        0.90970000      -2.08480000       3.09770000
C       -0.58000000      -1.85900000       3.08320000
C        0.19890000      -1.99040000       1.77960000
H        0.87570000       1.98220000       0.34890000
H       -0.25240000       1.88790000      -1.00520000
H       -0.86490000       1.93190000       0.65290000
H       -0.92580000      -0.45970000      -0.28710000
H        1.21020000      -1.64050000      -0.81910000
H        2.15840000      -0.13340000      -0.43170000
H        2.34310000       0.51450000       2.00190000
H        0.76220000       0.76500000       2.76420000
H        1.33480000      -2.99600000       3.50120000
H       -1.20870000      -2.69640000       3.36690000
H       -0.97210000      -0.88830000       3.36810000
H        0.03420000      -2.85200000       1.14310000
