16
Properties=species:S:1:pos:R:3 gdb_42576=T pbc="F F F"
O        0.00770000       0.03070000       0.18180000
C        0.00120000       1.22710000       0.02820000
C       -1.18680000       2.12370000      -0.06640000
C       -0.86160000       3.30370000      -0.96120000
C       -1.01930000       3.56370000       0.50140000
N        0.38240000       3.98560000       0.69360000
C        1.26080000       2.92330000       1.27780000
C        1.21940000       2.14370000      -0.07640000
C        0.65770000       3.45660000      -0.70370000
H       -2.18610000       1.70840000      -0.04490000
H       -1.44220000       3.61790000      -1.81720000
H       -1.83080000       4.00380000       1.06840000
H        2.24710000       3.33680000       1.50490000
H        0.86570000       2.41860000       2.16420000
H        2.11780000       1.65600000      -0.45070000
H        1.27650000       4.06400000      -1.36260000
