21
Properties=species:S:1:pos:R:3 gdb_94030=T pbc="F F F"
C        0.09380000       1.66990000      -0.21550000
C        0.03530000       0.15510000       0.01130000
C        0.68720000      -0.67850000      -1.12650000
C        1.35220000      -1.89170000      -0.43370000
C        1.50440000      -1.42670000       0.99960000
C        2.34740000      -2.17730000       2.00090000
C        1.92900000      -3.56840000       2.17480000
C        1.57390000      -4.70940000       2.30320000
C        0.78690000      -0.32780000       1.23250000
H        1.13120000       2.01060000      -0.30770000
H       -0.43610000       1.95110000      -1.13190000
H       -0.36620000       2.21620000       0.61500000
H       -1.02460000      -0.12600000       0.11660000
H       -0.02750000      -0.96660000      -1.90200000
H        1.45880000      -0.06820000      -1.60990000
H        0.72240000      -2.79050000      -0.47360000
H        2.30850000      -2.17120000      -0.89250000
H        3.39860000      -2.16780000       1.67550000
H        2.32030000      -1.66160000       2.96810000
H        1.26430000      -5.71770000       2.42420000
H        0.70510000       0.16510000       2.19680000
