22
Properties=species:S:1:pos:R:3 gdb_66309=T pbc="F F F"
C        0.12290000       1.60690000       0.03200000
C       -0.03190000       0.09660000       0.00610000
C       -1.32880000      -0.41900000      -0.59980000
C       -1.47550000      -0.10030000      -2.09560000
N       -2.69140000      -0.65590000      -2.66950000
C       -3.72350000       0.10810000      -3.11680000
O       -3.75010000       1.32080000      -3.12520000
C        1.21260000      -0.73960000      -0.19240000
C        0.54810000      -0.68120000       1.16340000
H        1.05590000       1.89680000       0.52490000
H        0.13850000       2.03500000      -0.97610000
H       -0.70310000       2.07700000       0.57860000
H       -1.38180000      -1.50720000      -0.46220000
H       -2.18790000       0.00510000      -0.06420000
H       -1.53410000       0.97650000      -2.26350000
H       -0.60320000      -0.47790000      -2.64360000
H       -2.80280000      -1.65730000      -2.69400000
H       -4.56090000      -0.51580000      -3.48920000
H        1.12950000      -1.66230000      -0.75810000
H        2.16120000      -0.22900000      -0.32040000
H        1.04570000      -0.12550000       1.95130000
H        0.01790000      -1.56220000       1.51040000
