23
Properties=species:S:1:pos:R:3 gdb_78024=T pbc="F F F"
C       -0.22310000       1.52270000       0.30500000
C        0.06050000       0.05140000       0.07510000
C        0.57720000      -0.63080000      -1.19340000
C        1.30810000       0.13110000      -2.29460000
C        0.42440000       0.97740000      -3.21560000
C        2.41440000       0.93840000      -1.56180000
C        2.66690000       0.20970000      -0.22080000
C        1.41370000      -0.61820000       0.05790000
O        1.59060000      -1.80770000       0.77800000
H        0.55830000       2.18030000      -0.07760000
H       -1.16580000       1.82010000      -0.16790000
H       -0.32110000       1.72590000       1.37800000
H       -0.67200000      -0.58900000       0.56370000
H        0.05880000      -1.54150000      -1.47600000
H        1.80020000      -0.63160000      -2.91430000
H       -0.10690000       1.75400000      -2.65580000
H        1.02260000       1.47240000      -3.98890000
H       -0.32570000       0.36030000      -3.72140000
H        3.32500000       1.00950000      -2.16420000
H        2.08120000       1.96680000      -1.39440000
H        3.49760000      -0.49840000      -0.31090000
H        2.92180000       0.90350000       0.58940000
H        1.65280000      -1.58180000       1.71240000
