21
Properties=species:S:1:pos:R:3 gdb_90102=T pbc="F F F"
C       -0.46800000       1.60670000       0.26720000
N       -0.39180000       0.16270000       0.19560000
C       -1.48130000      -0.63900000       0.88160000
C       -0.35970000      -1.67080000       1.15240000
C        0.35270000      -2.34670000      -0.06450000
C        1.44010000      -1.83050000       0.88100000
C        0.60880000      -0.51270000       1.07080000
N        0.61700000      -2.31690000       2.13650000
C        0.54660000      -3.75200000       2.40090000
H        0.42240000       2.04180000      -0.19810000
H       -1.34410000       1.95990000      -0.28690000
H       -0.53940000       1.99140000       1.30190000
H       -1.85290000      -0.14860000       1.79340000
H       -2.31550000      -0.92880000       0.23480000
H        0.24980000      -3.42630000      -0.16520000
H        0.24910000      -1.84010000      -1.02330000
H        2.52170000      -2.00110000       0.86470000
H        0.80080000       0.01420000       2.01180000
H        1.49460000      -4.06390000       2.85180000
H       -0.24160000      -3.92210000       3.14150000
H        0.34750000      -4.40590000       1.53910000
