12
Properties=species:S:1:pos:R:3 gdb_46171=T pbc="F F F"
N       -0.03100000       1.19480000      -0.30210000
C        0.02040000      -0.00810000       0.00250000
O        1.01440000      -0.82820000       0.46980000
C        0.14690000      -1.99250000       0.51620000
C       -1.05040000      -1.13240000      -0.01590000
C       -2.14490000      -0.94220000       0.93060000
N       -2.98520000      -0.80390000       1.70990000
C       -1.52810000      -1.49260000      -1.34710000
N       -1.87060000      -1.79840000      -2.40610000
H        0.85770000       1.68060000      -0.17880000
H        0.48320000      -2.77440000      -0.16510000
H        0.02320000      -2.36400000       1.53360000
