21
Properties=species:S:1:pos:R:3 gdb_89407=T pbc="F F F"
C       -0.81180000       1.22460000      -0.01450000
C        0.02230000      -0.05800000       0.01070000
C        0.97330000      -0.25060000      -1.16520000
C        2.30260000       0.49180000      -1.15240000
C        2.23500000      -0.92050000      -0.66300000
O        2.95200000      -1.86510000      -1.40020000
C        2.06630000      -1.15270000       0.83310000
C        0.91460000      -0.22050000       1.27370000
O        1.38190000       1.06780000       1.67040000
H       -0.17140000       2.10880000      -0.01990000
H       -1.44260000       1.24980000      -0.90900000
H       -1.46640000       1.29020000       0.86090000
H       -0.66700000      -0.91460000       0.01110000
H        0.55950000      -0.51520000      -2.13270000
H        2.77680000       0.61530000      -2.11980000
H        2.45840000       1.29590000      -0.44420000
H        2.47280000      -2.70070000      -1.35940000
H        1.77960000      -2.20090000       0.99810000
H        2.98130000      -0.97530000       1.41090000
H        0.33710000      -0.66420000       2.09710000
H        1.97540000       0.94750000       2.41800000
