19
Properties=species:S:1:pos:R:3 gdb_48163=T pbc="F F F"
N        0.04160000       1.31990000      -0.53600000
C       -0.05460000       0.12310000      -0.09370000
N       -1.24600000      -0.52660000       0.05830000
C       -2.51770000       0.15150000      -0.14090000
C       -3.65120000      -0.84260000      -0.17710000
C       -4.23440000      -1.36760000       1.11710000
C       -5.03090000      -0.42310000       0.25240000
C        1.15000000      -0.71840000       0.27130000
O        2.27840000      -0.31400000       0.17990000
H        1.03400000       1.55290000      -0.60740000
H       -1.26290000      -1.35510000       0.63260000
H       -2.69020000       0.89680000       0.65110000
H       -2.44620000       0.71380000      -1.07730000
H       -3.59700000      -1.55110000      -0.99920000
H       -4.53960000      -2.40690000       1.16340000
H       -3.83540000      -0.97850000       2.04880000
H       -5.16410000       0.59400000       0.60540000
H       -5.87840000      -0.81680000      -0.29670000
H        0.93130000      -1.74910000       0.63490000
