19
Properties=species:S:1:pos:R:3 gdb_74764=T pbc="F F F"
C        0.03880000       1.44840000       0.06040000
C       -0.00430000      -0.03880000       0.00180000
C       -0.01850000      -0.89430000      -1.02780000
C       -0.05140000      -2.27220000      -0.35800000
C       -1.10610000      -2.01800000       0.76860000
C       -0.03040000      -0.97730000       1.22230000
C        1.04990000      -2.04600000       0.76350000
C        1.31150000      -3.14860000       1.66740000
C        1.55240000      -4.06170000       2.41370000
H        0.92620000       1.80360000       0.60020000
H        0.05510000       1.88550000      -0.94220000
H       -0.83060000       1.85460000       0.59350000
H        0.00320000      -0.69680000      -2.09060000
H       -0.05270000      -3.16890000      -0.97580000
H       -2.07720000      -1.62620000       0.45910000
H       -1.21710000      -2.85620000       1.46080000
H       -0.01090000      -0.54450000       2.22230000
H        1.98700000      -1.61740000       0.39790000
H        1.76190000      -4.86790000       3.07200000
