21
Properties=species:S:1:pos:R:3 gdb_115802=T pbc="F F F"
C       -0.27560000       1.46610000       0.02830000
C       -0.07600000      -0.05160000       0.02370000
C        0.79890000      -0.54300000       1.17300000
O        0.19230000      -0.16260000       2.41360000
C        0.45080000      -1.14090000       3.40930000
C        0.74240000      -2.43500000       2.66830000
C        1.34940000      -3.61570000       3.37080000
O       -0.25920000      -2.70350000       1.67080000
C        0.95260000      -2.04810000       1.27090000
H        0.68030000       1.99290000      -0.07250000
H       -0.91750000       1.77910000      -0.80060000
H       -0.73950000       1.78920000       0.96330000
H       -1.04040000      -0.56510000       0.09670000
H        0.38940000      -0.36750000      -0.91890000
H        1.80790000      -0.09820000       1.09210000
H        1.32180000      -0.86920000       4.02900000
H       -0.42950000      -1.20480000       4.05860000
H        0.67850000      -3.98880000       4.15240000
H        1.52980000      -4.42900000       2.66410000
H        2.29850000      -3.34370000       3.84440000
H        1.59410000      -2.59130000       0.58120000
