20
Properties=species:S:1:pos:R:3 gdb_52449=T pbc="F F F"
N       -0.11570000       1.33840000      -0.14190000
C       -0.04770000       0.08220000      -0.04180000
O       -1.16950000      -0.66030000      -0.09430000
C       -0.99670000      -2.07680000      -0.03460000
C       -2.37730000      -2.71050000       0.04950000
C       -2.31410000      -4.24030000       0.09840000
C       -3.70760000      -4.88390000       0.20260000
C       -3.63580000      -6.39260000       0.13430000
O       -4.06880000      -7.14520000       0.96750000
H        0.81560000       1.74300000      -0.07150000
H        0.86720000      -0.51200000       0.09580000
H       -0.46370000      -2.42600000      -0.93050000
H       -0.39270000      -2.34610000       0.84340000
H       -2.88720000      -2.32340000       0.93900000
H       -2.96600000      -2.38450000      -0.81590000
H       -1.80550000      -4.61770000      -0.79920000
H       -1.70580000      -4.56020000       0.95420000
H       -4.21500000      -4.59820000       1.12850000
H       -4.32330000      -4.54360000      -0.64290000
H       -3.12530000      -6.78280000      -0.77870000
