22
Properties=species:S:1:pos:R:3 gdb_6938=T pbc="F F F"
C        0.04670000       1.35110000       0.23720000
O       -0.03260000      -0.05090000       0.29320000
C       -1.25640000      -0.55000000      -0.21330000
C       -1.21680000      -2.05340000      -0.15230000
C       -1.58390000      -2.79240000       1.11450000
C       -2.45530000      -2.92790000      -0.11290000
C       -3.84430000      -2.31370000      -0.09600000
C       -2.38600000      -4.23540000      -0.88190000
H        1.02080000       1.64190000       0.63870000
H       -0.03780000       1.72780000      -0.79550000
H       -0.74180000       1.83280000       0.83850000
H       -2.09810000      -0.14650000       0.37270000
H       -1.39790000      -0.20690000      -1.25380000
H       -0.38070000      -2.46490000      -0.71250000
H       -0.97120000      -3.63490000       1.41810000
H       -1.96200000      -2.19970000       1.94210000
H       -3.89320000      -1.40290000       0.50570000
H       -4.18390000      -2.06620000      -1.10900000
H       -4.56620000      -3.02280000       0.32630000
H       -3.06930000      -4.97860000      -0.45360000
H       -2.66840000      -4.09340000      -1.93210000
H       -1.37740000      -4.65940000      -0.86200000
