17
Properties=species:S:1:pos:R:3 gdb_49558=T pbc="F F F"
O       -0.32480000       0.38790000       0.71230000
C       -0.01680000       1.12890000      -0.18770000
C        1.21110000       2.00350000      -0.14690000
C        1.25230000       3.41530000      -0.78700000
C       -0.08150000       4.12460000      -0.57930000
O       -0.69100000       3.64770000       0.61840000
C        0.22860000       3.40510000       1.68640000
C        1.52300000       2.82450000       1.12730000
O        2.13050000       3.85210000       0.28930000
H       -0.61340000       1.17550000      -1.12670000
H        2.08500000       1.42250000      -0.45600000
H        1.68840000       3.56830000      -1.77720000
H        0.10240000       5.20790000      -0.53170000
H       -0.79400000       3.92100000      -1.38570000
H        0.46050000       4.33480000       2.22500000
H       -0.27140000       2.70450000       2.36050000
H        2.20240000       2.43870000       1.88940000
