10
Properties=species:S:1:pos:R:3 gdb_133412=T pbc="F F F"
F        0.05710000       0.06190000       0.00220000
C       -0.05700000       1.36300000       0.01110000
C       -1.23710000       2.01100000       0.03080000
C       -1.21690000       3.45420000       0.03920000
O       -2.16500000       4.21100000       0.05490000
C        0.19230000       3.96670000       0.02220000
F        0.32900000       5.26860000       0.02700000
N        1.28750000       3.30190000       0.00370000
O        1.15400000       1.91160000      -0.00210000
H       -2.16760000       1.46140000       0.04000000
