15
Properties=species:S:1:pos:R:3 gdb_833=T pbc="F F F"
C        0.07710000       1.49470000      -0.02590000
C       -0.07420000       0.01620000       0.01160000
C       -1.13050000      -0.82280000      -0.16020000
C       -0.63620000      -2.16590000      -0.00030000
C       -1.41520000      -3.44050000      -0.09670000
C        0.69010000      -2.02560000       0.25720000
O        1.05100000      -0.71010000       0.26880000
H        0.78760000       1.80740000      -0.79970000
H       -0.88730000       1.96080000      -0.23920000
H        0.44320000       1.88650000       0.93000000
H       -2.14670000      -0.52830000      -0.37610000
H       -1.87940000      -3.55510000      -1.08300000
H       -0.77320000      -4.30990000       0.07130000
H       -2.22320000      -3.47530000       0.64320000
H        1.48280000      -2.73100000       0.44720000
