12
Properties=species:S:1:pos:R:3 gdb_15494=T pbc="F F F"
O       -0.96630000       1.09280000       0.26360000
C        0.16360000       0.85930000      -0.05970000
C        1.27830000       1.91180000      -0.06510000
N        2.59370000       1.29760000       0.12610000
C        3.26970000       1.57850000      -0.92140000
N        2.62170000       2.34740000      -1.87630000
C        1.33230000       2.64160000      -1.43400000
O        0.50270000       3.29710000      -2.00290000
H        0.49900000      -0.14510000      -0.39420000
H        1.05190000       2.63670000       0.72240000
H        4.29240000       1.25800000      -1.09100000
H        3.00460000       2.68170000      -2.74610000
