20
Properties=species:S:1:pos:R:3 gdb_85425=T pbc="F F F"
C        0.12830000       1.61720000      -0.23870000
C       -0.05450000       0.12820000       0.06840000
N        0.48770000      -0.72820000      -0.97590000
C        1.75270000      -1.17850000      -0.65750000
O        2.56170000      -1.68630000      -1.38350000
O        1.95360000      -0.96330000       0.67520000
C        0.74440000      -0.44070000       1.28700000
C        1.16490000       0.58020000       2.33550000
C       -0.00770000      -1.61410000       1.92240000
H        1.18390000       1.87080000      -0.37410000
H       -0.39990000       1.87270000      -1.16340000
H       -0.28230000       2.24280000       0.55900000
H       -1.12080000      -0.07920000       0.21400000
H        0.29630000      -0.55820000      -1.95060000
H        1.78000000       1.37110000       1.90230000
H        0.28700000       1.03440000       2.80520000
H        1.74930000       0.08540000       3.11590000
H        0.64040000      -2.13260000       2.63360000
H       -0.89460000      -1.25780000       2.45620000
H       -0.32650000      -2.32830000       1.15840000
