27
Properties=species:S:1:pos:R:3 gdb_118062=T pbc="F F F"
C       -0.05780000       1.62020000      -0.11570000
C        0.00270000       0.08970000      -0.10960000
C       -1.36860000      -0.55480000       0.12610000
C       -1.37090000      -2.09710000       0.12370000
C       -0.71930000      -2.66220000       1.39570000
C       -2.80790000      -2.63040000      -0.08550000
O       -3.38180000      -2.09050000      -1.27920000
C       -2.91990000      -4.16190000      -0.08510000
C       -4.35260000      -4.65780000      -0.30120000
H        0.92740000       2.05990000      -0.30100000
H       -0.73870000       1.98550000      -0.89250000
H       -0.41870000       2.00520000       0.84460000
H        0.40500000      -0.26300000      -1.06910000
H        0.71730000      -0.23750000       0.65570000
H       -1.77730000      -0.20150000       1.08440000
H       -2.06100000      -0.20950000      -0.64820000
H       -0.77940000      -2.43580000      -0.74370000
H       -1.35060000      -2.47210000       2.27240000
H       -0.54800000      -3.73970000       1.33320000
H        0.25000000      -2.19160000       1.58240000
H       -3.44380000      -2.23250000       0.71820000
H       -2.86300000      -2.42170000      -2.02150000
H       -2.26160000      -4.56230000      -0.87140000
H       -2.53660000      -4.55530000       0.86190000
H       -4.39080000      -5.75090000      -0.33360000
H       -5.00820000      -4.32460000       0.51110000
H       -4.76380000      -4.26770000      -1.23520000
