10
Properties=species:S:1:pos:R:3 gdb_23874=T pbc="F F F"
O       -0.02840000       1.43500000      -0.01640000
C        0.01950000       0.03600000      -0.02080000
C        0.66110000      -0.50750000      -1.23500000
N        1.16820000      -0.89210000      -2.19790000
C        0.73620000      -0.49570000       1.23710000
F        0.06080000      -0.14960000       2.32990000
F        0.84500000      -1.82340000       1.20310000
F        1.96520000       0.03350000       1.31780000
H        0.87750000       1.76990000      -0.02830000
H       -1.01450000      -0.32030000       0.02270000
