19
Properties=species:S:1:pos:R:3 gdb_90448=T pbc="F F F"
C        0.15030000       1.11900000      -0.38610000
N        0.04310000       0.04100000       0.57600000
C       -1.13720000      -0.88860000       0.68270000
C       -0.14510000      -2.01760000       1.11120000
C        0.29220000      -3.26250000       0.29580000
O       -0.30170000      -3.34570000      -0.98730000
C        1.83160000      -2.96310000       0.19280000
N        1.93330000      -1.48070000       0.00940000
C        0.88400000      -1.05880000       0.59710000
H        1.13920000       1.57570000      -0.30120000
H        0.02130000       0.76980000      -1.42270000
H       -0.60370000       1.88160000      -0.17360000
H       -1.88640000      -0.57220000       1.41140000
H       -1.60320000      -1.08310000      -0.29010000
H       -0.13690000      -2.20310000       2.18700000
H        0.06670000      -4.20820000       0.79530000
H        0.10190000      -2.66360000      -1.53720000
H        2.37010000      -3.29800000       1.08970000
H        2.26880000      -3.47650000      -0.66880000
