21
Properties=species:S:1:pos:R:3 gdb_37950=T pbc="F F F"
C       -0.06040000       1.42470000       0.16850000
C        1.46100000       1.55560000      -0.11070000
C        2.31050000       0.35580000       0.33420000
C        2.06140000      -0.56170000       1.53510000
C        1.79370000      -2.05080000       1.17580000
C        0.64440000      -2.32110000       0.13500000
C       -0.33790000      -1.17730000       0.17710000
C        0.06760000      -0.01110000      -0.31620000
C        1.44820000       0.24900000      -0.89030000
H       -0.43340000       1.58010000       1.18750000
H       -0.60920000       2.08230000      -0.51540000
H        1.94440000       2.48650000      -0.38490000
H        3.36250000       0.52340000       0.10940000
H        2.93300000      -0.52620000       2.19880000
H        1.22600000      -0.18360000       2.13020000
H        2.71680000      -2.50950000       0.80270000
H        1.55550000      -2.57040000       2.11100000
H        1.07960000      -2.39990000      -0.86570000
H        0.17820000      -3.28730000       0.34910000
H       -1.20700000      -1.23950000       0.82870000
H        1.80850000       0.02390000      -1.88670000
