20
Properties=species:S:1:pos:R:3 gdb_8196=T pbc="F F F"
C       -0.01330000       1.50990000      -0.05350000
C       -0.03010000       0.00290000       0.05070000
C        1.23180000      -0.77850000      -0.23500000
C        0.65870000      -0.77670000       1.17460000
C        1.42280000      -0.15900000       2.32230000
C       -0.24840000      -1.93760000       1.43930000
C       -1.32730000      -1.92760000       0.65490000
C       -1.35300000      -0.71460000      -0.24850000
H        0.95160000       1.92920000       0.24650000
H       -0.20140000       1.83290000      -1.08470000
H       -0.78600000       1.96280000       0.57900000
H        1.17640000      -1.69620000      -0.81270000
H        2.13240000      -0.19370000      -0.40300000
H        1.99600000       0.71580000       2.00180000
H        0.75080000       0.15750000       3.12820000
H        2.13520000      -0.87570000       2.74820000
H       -0.01000000      -2.69890000       2.17510000
H       -2.09690000      -2.69090000       0.63230000
H       -2.21360000      -0.06720000      -0.02410000
H       -1.44660000      -0.98660000      -1.30850000
