17
Properties=species:S:1:pos:R:3 gdb_52744=T pbc="F F F"
C       -0.06550000       1.48540000       0.05340000
C       -0.02340000       0.03080000       0.01680000
C        0.02680000      -1.17090000      -0.01700000
C        0.04880000      -2.63650000      -0.04960000
C       -1.41200000      -3.19950000      -0.10200000
C       -1.47030000      -4.64570000       0.04800000
C       -1.50340000      -5.83810000       0.19170000
C        0.85710000      -3.14010000      -1.16400000
C        1.50770000      -3.55690000      -2.08290000
H        0.52500000       1.91770000      -0.76160000
H       -1.09150000       1.85590000      -0.04710000
H        0.33630000       1.87130000       0.99660000
H        0.49410000      -3.00240000       0.88590000
H       -1.98230000      -2.71370000       0.69720000
H       -1.86570000      -2.89200000      -1.04990000
H       -1.53920000      -6.89290000       0.30770000
H        2.08830000      -3.92580000      -2.89180000
