19
Properties=species:S:1:pos:R:3 gdb_103989=T pbc="F F F"
C       -0.18990000       1.52420000       0.09020000
C        0.11970000       0.06330000       0.01590000
O       -0.72590000      -0.83630000       0.74200000
C        0.68540000      -0.90720000       0.97680000
C        1.25490000      -1.79690000      -0.12950000
C        0.70820000      -0.73360000      -1.16860000
O       -0.24680000      -1.15490000      -2.10540000
C        1.83480000       0.00790000      -1.87970000
O        2.37530000      -0.90930000      -2.82780000
H        0.66420000       2.13230000      -0.22600000
H       -1.03830000       1.76950000      -0.55780000
H       -0.45260000       1.79940000       1.11490000
H        1.03090000      -0.75760000       1.99350000
H        2.34260000      -1.89310000      -0.14230000
H        0.78540000      -2.77970000      -0.19510000
H        0.25520000      -1.49860000      -2.85620000
H        1.41960000       0.89220000      -2.38420000
H        2.59860000       0.34270000      -1.16240000
H        2.93400000      -0.42500000      -3.44200000
