20
Properties=species:S:1:pos:R:3 gdb_79061=T pbc="F F F"
C       -0.16060000       1.55640000       0.12880000
C        0.03020000       0.05840000      -0.01620000
C        0.79910000      -0.57870000      -1.18560000
C        2.12700000      -0.13530000      -0.49210000
C        3.15000000      -1.23630000      -0.64730000
C        2.43310000      -2.35140000      -0.47980000
C        2.81190000      -3.79150000      -0.46850000
C        1.03680000      -1.79880000      -0.24430000
N        1.22550000      -0.58070000       0.71290000
H        0.71570000       2.13440000      -0.17490000
H       -1.00670000       1.88880000      -0.48270000
H       -0.38390000       1.80740000       1.17100000
H       -0.89980000      -0.45810000       0.25210000
H        0.56680000      -0.58780000      -2.25960000
H        2.45350000       0.90290000      -0.48590000
H        4.21080000      -1.11410000      -0.81550000
H        3.88050000      -3.92460000      -0.65780000
H        2.57730000      -4.25540000       0.49790000
H        2.25900000      -4.35830000      -1.22850000
H        0.21770000      -2.47240000       0.01640000
