18
Properties=species:S:1:pos:R:3 gdb_51254=T pbc="F F F"
O       -0.27930000       0.05830000       0.03470000
C       -0.05160000       1.24640000       0.03100000
N        1.19840000       1.80810000       0.00390000
C        2.39810000       1.10730000      -0.02340000
C        2.69460000      -0.20020000      -0.03140000
C        4.23350000      -0.18020000      -0.06560000
C        4.53890000       0.93280000       0.99600000
C        3.76680000       1.80400000      -0.05310000
C        4.49150000       0.93520000      -1.13740000
H       -0.84200000       2.02200000       0.04940000
H        1.24900000       2.81520000       0.00410000
H        2.04320000      -1.05630000      -0.01790000
H        4.76060000      -1.13310000      -0.07840000
H        4.09060000       0.82140000       1.98570000
H        5.59990000       1.19230000       1.07100000
H        3.79370000       2.89570000      -0.05250000
H        5.54810000       1.19480000      -1.25880000
H        3.99960000       0.82590000      -2.10640000
