17
Properties=species:S:1:pos:R:3 gdb_2223=T pbc="F F F"
C        0.01410000       1.57150000       0.02500000
C        0.06160000       0.06080000       0.08450000
C        1.30690000      -0.73780000      -0.17610000
O        2.47120000      -0.03780000       0.27620000
C        1.98840000      -0.10390000       1.64390000
C        0.68140000      -0.76530000       1.20560000
C       -0.04480000      -1.83050000       1.97350000
H        1.00100000       1.99900000       0.21760000
H       -0.29930000       1.90660000      -0.96940000
H       -0.69250000       1.98280000       0.75400000
H       -0.82560000      -0.43800000      -0.30460000
H        1.44140000      -1.48850000      -0.94790000
H        2.62440000      -0.77010000       2.23980000
H        1.93980000       0.88180000       2.12200000
H       -0.59680000      -1.40730000       2.82190000
H       -0.77130000      -2.34770000       1.33860000
H        0.64760000      -2.58250000       2.36940000
