15
Properties=species:S:1:pos:R:3 gdb_35005=T pbc="F F F"
C        0.08900000      -1.18690000      -0.01670000
C        0.03620000       0.01440000       0.00520000
C       -0.06820000       1.43500000       0.01160000
C       -0.83660000       2.28210000      -1.01000000
C        0.35580000       3.26890000      -0.95600000
N        1.12960000       2.39340000       0.00260000
C        0.29600000       2.24710000       1.21670000
C       -0.55340000       3.30270000       1.70810000
N       -1.23410000       4.15290000       2.09800000
H        0.14430000      -2.24760000      -0.03260000
H       -0.92900000       1.77630000      -1.97090000
H       -1.81750000       2.64050000      -0.69100000
H        0.91300000       3.33890000      -1.89010000
H        0.16090000       4.27220000      -0.57030000
H        0.82290000       1.70720000       1.99750000
