17
Properties=species:S:1:pos:R:3 gdb_9652=T pbc="F F F"
C       -0.33760000       1.10240000      -0.15300000
O        0.52760000       0.00620000       0.10420000
C        0.96760000      -0.62130000      -1.04500000
C        1.54440000      -1.98250000      -0.89560000
C        0.18180000      -1.83600000      -1.58090000
C       -1.05820000      -2.30990000      -0.84120000
C        0.15470000      -1.98800000      -3.01110000
N        0.13040000      -2.09340000      -4.16390000
H        0.15910000       1.86310000      -0.77120000
H       -1.25720000       0.78300000      -0.66060000
H       -0.59220000       1.53840000       0.81490000
H        1.39590000       0.04140000      -1.79720000
H        2.40160000      -2.25460000      -1.49910000
H        1.51780000      -2.41600000       0.09800000
H       -0.99830000      -2.00590000       0.20580000
H       -1.96430000      -1.87780000      -1.27560000
H       -1.14740000      -3.39920000      -0.88640000
