18
Properties=species:S:1:pos:R:3 gdb_44504=T pbc="F F F"
O        0.01930000      -0.05150000       0.32210000
C       -0.00840000       1.12940000       0.07300000
C       -1.29620000       1.91960000      -0.07940000
C       -1.11740000       3.15680000      -0.94420000
C       -0.09040000       3.19360000      -2.10850000
C       -0.11570000       4.71530000      -1.87960000
N       -0.07750000       4.18550000      -0.43540000
C        0.98130000       3.19760000      -0.98460000
C        1.24100000       1.96880000      -0.12830000
H       -2.07510000       1.25880000      -0.47190000
H       -1.62210000       2.23510000       0.92190000
H       -2.08150000       3.63410000      -1.14650000
H       -0.09780000       2.63540000      -3.05170000
H        0.77140000       5.29280000      -2.15240000
H       -1.03460000       5.25750000      -2.11750000
H        1.91760000       3.71170000      -1.22350000
H        1.59270000       2.29750000       0.86000000
H        2.02930000       1.33850000      -0.55100000
