19
Properties=species:S:1:pos:R:3 gdb_68749=T pbc="F F F"
C       -0.08280000       1.49510000      -0.11050000
C        0.04840000       0.00540000       0.01550000
C        1.32900000      -0.73310000      -0.19550000
C        0.65910000      -0.73170000       1.19480000
C        1.34460000      -0.13850000       2.39850000
C       -0.24120000      -1.90500000       1.40030000
O       -0.23700000      -2.67120000       2.33150000
C       -1.24370000      -1.91290000       0.23870000
O       -1.11970000      -0.66720000      -0.42690000
H        0.82840000       1.99710000       0.22420000
H       -0.25940000       1.76920000      -1.15540000
H       -0.92510000       1.86050000       0.48450000
H        1.32770000      -1.64210000      -0.78770000
H        2.24660000      -0.15670000      -0.25390000
H        1.98340000       0.70480000       2.12170000
H        0.61690000       0.21240000       3.13700000
H        1.96800000      -0.89490000       2.88510000
H       -1.03620000      -2.75640000      -0.43590000
H       -2.26370000      -2.03000000       0.61900000
