15
Properties=species:S:1:pos:R:3 gdb_84982=T pbc="F F F"
O       -0.01360000       1.45350000       0.12230000
C        0.00340000       0.03540000       0.00330000
C       -1.43580000      -0.48640000      -0.09100000
C       -1.46460000      -1.41480000      -1.30770000
O       -2.36730000      -2.13760000      -1.63940000
C       -0.14100000      -1.25130000      -2.00990000
C        0.64750000      -0.44140000      -1.28070000
C        0.15350000      -1.88390000      -3.23890000
C        0.37180000      -2.43800000      -4.28490000
H        0.89150000       1.75980000       0.24260000
H        0.52580000      -0.40850000       0.86560000
H       -1.78850000      -1.00740000       0.80120000
H       -2.10780000       0.35820000      -0.27270000
H        1.65510000      -0.14770000      -1.55640000
H        0.56320000      -2.92670000      -5.20820000
