25
Properties=species:S:1:pos:R:3 gdb_122139=T pbc="F F F"
C       -0.11150000       1.57700000       0.03560000
C        0.00920000       0.05070000       0.03180000
C        0.70510000      -0.49360000      -1.22030000
C        0.82260000      -2.02030000      -1.22710000
C        1.50390000      -2.58140000      -2.47540000
C        1.60640000      -4.11290000      -2.45240000
O        0.32410000      -4.70870000      -2.48120000
O        0.71450000      -2.19630000      -3.60770000
C        1.43170000      -2.07930000      -4.81880000
H        0.87510000       2.05220000      -0.00680000
H       -0.68360000       1.92970000      -0.82980000
H       -0.61560000       1.93760000       0.93770000
H        0.55810000      -0.27620000       0.92520000
H       -0.99040000      -0.39680000       0.11180000
H        0.15810000      -0.17550000      -2.11490000
H        1.70770000      -0.04850000      -1.29880000
H        1.39450000      -2.35530000      -0.35200000
H       -0.16870000      -2.47960000      -1.14220000
H        2.51430000      -2.15070000      -2.57060000
H        2.22320000      -4.45700000      -3.29900000
H        2.10320000      -4.44420000      -1.53410000
H       -0.17000000      -4.21550000      -3.14890000
H        0.71910000      -1.76300000      -5.58480000
H        2.22760000      -1.32400000      -4.74100000
H        1.88720000      -3.02810000      -5.13670000
