13
Properties=species:S:1:pos:R:3 gdb_399=T pbc="F F F"
C       -0.04150000       1.51340000       0.00020000
C        0.01250000      -0.00670000       0.00660000
C        1.34190000      -0.70640000      -0.23620000
C        0.73820000      -0.72220000       1.13660000
C       -1.16440000      -0.65530000      -0.51800000
N       -2.11460000      -1.16190000      -0.94190000
H        0.88560000       1.92120000       0.41280000
H       -0.16220000       1.89810000      -1.01670000
H       -0.87590000       1.87950000       0.60520000
H        1.33170000      -1.62440000      -0.81120000
H        2.19430000      -0.06260000      -0.42240000
H        1.17160000      -0.08920000       1.90300000
H        0.31550000      -1.65100000       1.50000000
