18
Properties=species:S:1:pos:R:3 gdb_128146=T pbc="F F F"
C       -0.18790000       1.28250000       0.02830000
N       -0.27250000      -0.15650000      -0.16940000
C        0.56410000      -0.76860000      -1.07550000
C        1.04350000      -2.06860000      -1.10320000
N        0.79000000      -3.05360000      -0.12810000
C       -0.22770000      -4.04500000      -0.50860000
N        1.80120000      -2.22410000      -2.22470000
N        1.84010000      -1.11360000      -2.89340000
N        1.07170000      -0.21500000      -2.19940000
H        0.82520000       1.63580000       0.27480000
H       -0.52620000       1.80800000      -0.87200000
H       -0.86280000       1.56680000       0.83800000
H       -0.30870000      -0.69910000       0.68450000
H        1.65430000      -3.53100000       0.10500000
H       -1.18330000      -3.53590000      -0.66530000
H        0.02090000      -4.59500000      -1.42720000
H       -0.35440000      -4.76080000       0.30930000
H        0.96770000       0.72000000      -2.55540000
