16
Properties=species:S:1:pos:R:3 gdb_17526=T pbc="F F F"
O       -0.01350000       1.43010000      -0.10810000
C        0.08010000       0.01900000      -0.02430000
C       -1.28270000      -0.58970000       0.12270000
C       -2.22580000      -0.37280000       1.33760000
C       -2.97960000      -1.58950000       0.80260000
C       -2.84120000      -1.47950000      -0.72530000
O       -2.15130000      -0.26560000      -1.01910000
C       -1.74340000      -2.09980000       0.06380000
H       -0.63800000       1.62110000      -0.81810000
H        0.57790000      -0.41000000      -0.90800000
H        0.69270000      -0.21070000       0.85380000
H       -1.72080000      -0.59710000       2.28070000
H       -2.73350000       0.59420000       1.39030000
H       -3.75890000      -2.17220000       1.27660000
H       -3.54010000      -1.87800000      -1.44840000
H       -1.23120000      -3.05100000       0.03210000
