20
Properties=species:S:1:pos:R:3 gdb_115071=T pbc="F F F"
O        0.01780000       1.50950000       0.06740000
C        0.02740000       0.09060000       0.00270000
C       -1.37540000      -0.52640000       0.04550000
C       -2.10340000      -0.21330000       1.37230000
C       -3.56050000      -0.57500000       1.30130000
C       -4.22270000      -0.57230000       0.14270000
C       -3.56390000      -0.21480000      -1.13580000
C       -2.84380000       1.09750000      -1.23980000
N       -2.09670000      -0.15600000      -1.18010000
H       -0.30630000       1.83100000      -0.77930000
H        0.54540000      -0.26060000      -0.90020000
H        0.59860000      -0.24850000       0.87380000
H       -1.24930000      -1.61560000      -0.01880000
H       -1.61170000      -0.76330000       2.18380000
H       -1.96810000       0.84940000       1.61220000
H       -4.06960000      -0.84030000       2.22330000
H       -5.27240000      -0.84660000       0.09550000
H       -4.01960000      -0.61830000      -2.03770000
H       -2.79920000       1.61740000      -2.19440000
H       -2.88140000       1.74360000      -0.36700000
