21
Properties=species:S:1:pos:R:3 gdb_114428=T pbc="F F F"
C       -0.05660000       1.55070000      -0.06430000
C        0.05120000       0.02300000      -0.03310000
C        0.70470000      -0.52220000       1.23980000
C       -0.08200000      -0.24500000       2.55970000
C        0.08680000      -1.52190000       3.38210000
C       -0.35800000      -2.81190000       2.71860000
O       -0.52060000      -2.62040000       1.31220000
C        0.83400000      -2.04630000       1.26280000
C        1.09280000      -2.45380000       2.72800000
H        0.93040000       2.02040000       0.01840000
H       -0.51040000       1.89500000      -0.99890000
H       -0.67160000       1.92730000       0.75970000
H       -0.94290000      -0.42830000      -0.13030000
H        0.63050000      -0.31450000      -0.90290000
H        1.71860000      -0.10520000       1.33180000
H        0.31170000       0.62390000       3.09420000
H       -1.13790000      -0.04680000       2.34650000
H        0.03470000      -1.49150000       4.46510000
H       -0.92780000      -3.60160000       3.19440000
H        1.42500000      -2.49890000       0.46390000
H        1.96700000      -2.91090000       3.16960000
