21
Properties=species:S:1:pos:R:3 gdb_56882=T pbc="F F F"
C        0.25970000       1.54560000      -0.03780000
C        0.06480000       0.01510000      -0.04050000
C        0.68220000      -0.59260000      -1.21830000
C        1.17600000      -1.08010000      -2.20060000
C        0.58010000      -0.58230000       1.27980000
C        0.77730000      -2.10430000       1.42040000
C        2.22660000      -1.73580000       1.81300000
C        3.37280000      -2.32160000       1.01630000
O        1.98410000      -0.33830000       1.49500000
H        1.32080000       1.78380000       0.06460000
H       -0.11130000       1.98740000      -0.96540000
H       -0.28010000       1.99390000       0.80230000
H       -1.01350000      -0.20040000      -0.07540000
H        1.60930000      -1.50540000      -3.07190000
H       -0.01740000      -0.14390000       2.09350000
H        0.17460000      -2.60310000       2.18060000
H        0.70520000      -2.64580000       0.47520000
H        2.41570000      -1.84440000       2.89040000
H        3.18400000      -2.21820000      -0.05560000
H        4.30790000      -1.80530000       1.25650000
H        3.49830000      -3.38350000       1.25590000
