14
Properties=species:S:1:pos:R:3 gdb_4095=T pbc="F F F"
O       -0.05710000       1.28540000      -0.23440000
N        0.01720000      -0.07720000      -0.02130000
C       -1.12060000      -0.64470000       0.10680000
C       -1.24930000      -2.14150000       0.30480000
N       -2.61840000      -2.47840000      -0.13770000
C       -3.43940000      -1.30540000       0.19440000
C       -2.51970000      -0.07730000       0.08310000
O       -2.85870000       1.07520000      -0.00000000
H        0.87210000       1.53200000      -0.31390000
H       -0.49980000      -2.71030000      -0.24780000
H       -1.14460000      -2.40050000       1.36760000
H       -2.60760000      -2.58410000      -1.14770000
H       -4.31310000      -1.21050000      -0.45350000
H       -3.80230000      -1.37940000       1.22980000
