19
Properties=species:S:1:pos:R:3 gdb_107922=T pbc="F F F"
C       -0.20380000       1.48010000       0.21470000
C        0.20630000       0.01290000       0.03130000
C        0.82410000      -0.56610000       1.26070000
O        2.06720000      -0.01480000       1.73800000
C        2.14610000      -1.17510000       2.60570000
C        1.10060000      -1.95210000       1.72910000
C        0.06890000      -1.11050000       2.48960000
C        1.02360000      -0.91360000       3.65620000
O        0.86510000      -1.96120000       4.58970000
H        0.65910000       2.08540000       0.50610000
H       -0.61230000       1.89080000      -0.71310000
H       -0.96320000       1.58100000       0.99650000
H       -0.66330000      -0.59870000      -0.23800000
H        0.92210000      -0.07510000      -0.79500000
H        3.15900000      -1.46600000       2.88120000
H        1.05920000      -2.92860000       1.26820000
H       -1.00690000      -1.22740000       2.52010000
H        1.05260000       0.07110000       4.14400000
H        1.55920000      -1.87190000       5.25110000
