15
Properties=species:S:1:pos:R:3 gdb_76029=T pbc="F F F"
N        0.14930000       1.43660000      -0.01710000
C        0.04080000       0.01540000       0.01280000
C       -0.46180000      -0.68800000       1.26050000
C       -0.99150000       0.06630000       2.35590000
N       -1.44760000       0.67120000       3.23090000
C       -1.29960000      -0.70790000      -0.05510000
O       -2.38230000       0.16380000      -0.11270000
C       -1.43140000      -1.96350000      -0.73650000
C       -1.53650000      -3.02010000      -1.30230000
H        0.19810000       1.75870000      -0.97890000
H       -0.67300000       1.86560000       0.39690000
H        0.86380000      -0.49300000      -0.47830000
H        0.03050000      -1.61340000       1.53680000
H       -3.11150000      -0.20810000       0.39800000
H       -1.63300000      -3.94850000      -1.80950000
