21
Properties=species:S:1:pos:R:3 gdb_84991=T pbc="F F F"
C        0.42650000       1.47830000       0.15850000
C       -0.07330000       0.05900000      -0.07760000
C        0.54900000      -0.66700000      -1.29470000
C        1.55810000      -1.66730000      -0.69390000
C        1.46830000      -3.07150000      -1.30730000
C        3.01440000      -1.16280000      -0.75760000
C        1.14380000      -1.72840000       0.78310000
O        1.54120000      -2.49870000       1.61110000
O        0.24400000      -0.75690000       1.07180000
H        1.51840000       1.51050000       0.22120000
H        0.11040000       2.12810000      -0.66390000
H        0.01770000       1.87680000       1.09080000
H       -1.16550000       0.06920000      -0.14430000
H       -0.22760000      -1.19800000      -1.85170000
H        1.01910000       0.03980000      -1.98300000
H        1.80350000      -3.05680000      -2.34950000
H        2.09790000      -3.76730000      -0.74650000
H        0.44230000      -3.45220000      -1.28470000
H        3.12080000      -0.16110000      -0.33040000
H        3.67270000      -1.83660000      -0.20260000
H        3.35230000      -1.12390000      -1.79830000
