20
Properties=species:S:1:pos:R:3 gdb_107707=T pbc="F F F"
C        0.11040000       1.54980000      -0.01810000
C        0.12800000       0.01710000      -0.05970000
C        0.72430000      -0.51960000      -1.32080000
O        2.11160000      -0.19900000      -1.66310000
C        1.68200000      -1.03630000      -2.78010000
C        2.64540000      -1.33740000      -3.88110000
C        0.79490000      -1.97240000      -1.88360000
N       -0.46660000      -1.78490000      -2.67220000
C        0.22220000      -0.45960000      -2.80000000
H        1.12030000       1.95110000      -0.13870000
H       -0.51140000       1.95810000      -0.82140000
H       -0.29120000       1.90890000       0.93380000
H        0.70030000      -0.37710000       0.78900000
H       -0.88770000      -0.38740000       0.02300000
H        3.52350000      -1.86190000      -3.49230000
H        2.17070000      -1.97120000      -4.63760000
H        2.97970000      -0.41400000      -4.36400000
H        1.05980000      -2.89680000      -1.36730000
H       -0.41080000      -2.29870000      -3.55530000
H       -0.18240000       0.38580000      -3.35880000
