20
Properties=species:S:1:pos:R:3 gdb_82243=T pbc="F F F"
C        0.02420000       1.59980000      -0.01600000
C        0.08280000       0.07540000      -0.00210000
C        0.74990000      -0.56030000      -1.23220000
O        1.93830000       0.10370000      -1.74110000
C        2.71690000      -1.10540000      -1.58130000
C        1.60290000      -1.75130000      -0.73340000
C        1.67160000      -1.54090000       0.77540000
C        2.19120000      -0.24170000       1.28380000
N        0.74200000      -0.47270000       1.20840000
H        1.01850000       2.03110000      -0.15250000
H       -0.60770000       1.95140000      -0.83730000
H       -0.39540000       1.96910000       0.92340000
H       -0.94270000      -0.31760000       0.02980000
H        0.03800000      -0.74810000      -2.04550000
H        2.88650000      -1.59780000      -2.54750000
H        3.67890000      -0.92180000      -1.09170000
H        1.30100000      -2.76490000      -0.99840000
H        1.71560000      -2.42210000       1.40890000
H        2.58430000      -0.17850000       2.29510000
H        2.64840000       0.43940000       0.57350000
