12
Properties=species:S:1:pos:R:3 gdb_131960=T pbc="F F F"
C        0.01270000       1.46470000       0.01620000
C        0.00340000      -0.02210000       0.00680000
N       -0.07270000      -0.72250000      -1.10160000
O       -0.05210000      -2.05180000      -0.66430000
C        0.03390000      -1.97640000       0.65450000
N        0.07330000      -0.79070000       1.15330000
N        0.07460000      -3.24220000       1.39660000
O        0.02590000      -4.25890000       0.72520000
O        0.15300000      -3.15170000       2.60660000
H        0.93020000       1.83150000       0.48510000
H       -0.05210000       1.84850000      -1.00260000
H       -0.83100000       1.84180000       0.60110000
