19
Properties=species:S:1:pos:R:3 gdb_37089=T pbc="F F F"
C       -0.02680000       1.50950000       0.07430000
C        1.29170000       0.77040000      -0.01210000
C       -0.00370000       0.01560000      -0.00670000
C       -0.45480000      -0.98850000       1.04270000
O       -1.86710000      -1.18860000       0.87890000
C       -0.97360000      -1.89130000       0.00190000
C       -0.54520000      -0.92760000      -1.09390000
C       -1.24790000      -0.61780000      -2.37810000
C        0.10580000      -1.29580000      -2.39330000
H       -0.30360000       1.97100000       1.01640000
H       -0.35920000       2.05580000      -0.80300000
H        1.85040000       0.82270000      -0.94140000
H        1.91480000       0.72310000       0.87560000
H       -0.02450000      -1.19780000       2.01560000
H       -1.04440000      -2.97270000      -0.03060000
H       -2.12440000      -1.20090000      -2.64030000
H       -1.29680000       0.42180000      -2.68680000
H        0.96620000      -0.71850000      -2.71700000
H        0.15270000      -2.34660000      -2.66210000
