15
Properties=species:S:1:pos:R:3 gdb_133093=T pbc="F F F"
O        0.36310000       0.99180000       0.80790000
C        0.00640000       0.11210000      -0.23990000
C       -1.41320000      -0.41110000      -0.14640000
C       -2.08840000      -0.45750000       1.07730000
C       -3.37850000      -0.96800000       1.10810000
N       -4.02420000      -1.42560000       0.02710000
C       -3.36680000      -1.37100000      -1.10820000
F       -4.01120000      -1.82220000      -2.18210000
C       -2.07600000      -0.87970000      -1.27630000
H       -0.18870000       1.77790000       0.73650000
H        0.16540000       0.56710000      -1.22920000
H        0.70540000      -0.72980000      -0.16550000
H       -1.60660000      -0.09990000       1.97850000
H       -3.92990000      -1.01660000       2.04350000
H       -1.62320000      -0.86690000      -2.26130000
