17
Properties=species:S:1:pos:R:3 gdb_108098=T pbc="F F F"
O        0.53330000      -0.10350000      -0.69750000
C       -0.31880000       0.43240000       0.30780000
C       -1.66190000      -0.24010000       0.28930000
C       -2.81560000      -0.21410000       1.29280000
C       -3.40230000      -1.39320000       0.47310000
O       -3.74330000      -0.79340000      -0.80250000
C       -2.34750000      -0.65880000      -1.05270000
C       -1.92110000      -1.68970000      -0.06000000
O       -1.03270000      -2.73630000      -0.04050000
H        0.62730000      -1.04600000      -0.51320000
H        0.13490000       0.34180000       1.30830000
H       -0.40940000       1.50310000       0.09160000
H       -2.48820000      -0.53080000       2.28690000
H       -3.44550000       0.67830000       1.35730000
H       -4.16110000      -2.07150000       0.85760000
H       -1.99190000      -0.36590000      -2.03030000
H       -1.30180000      -3.38520000      -0.70230000
