17
Properties=species:S:1:pos:R:3 gdb_75074=T pbc="F F F"
C       -0.01230000       1.49070000       0.09650000
C       -0.02690000       0.00060000       0.00960000
C       -0.07550000      -0.75540000      -1.09180000
C       -0.07170000      -2.20530000      -0.72040000
C       -0.01210000      -2.18660000       0.81040000
O        0.00980000      -3.12590000       1.55450000
N        0.01260000      -0.81040000       1.18190000
C        0.06680000      -0.30160000       2.47760000
N        0.10180000      -1.02450000       3.52010000
H        0.89380000       1.86570000       0.58670000
H       -0.04840000       1.90860000      -0.91150000
H       -0.87150000       1.87920000       0.65550000
H       -0.11180000      -0.36970000      -2.09970000
H       -0.96710000      -2.75240000      -1.03840000
H        0.78830000      -2.76510000      -1.10650000
H        0.07500000       0.79230000       2.47670000
H        0.13840000      -0.42500000       4.34340000
