19
Properties=species:S:1:pos:R:3 gdb_128851=T pbc="F F F"
C        1.10630000       0.91270000       0.00690000
O        0.81990000      -0.42880000      -0.31570000
C       -0.12520000      -0.56020000      -1.35340000
C       -0.25760000      -2.03870000      -1.69690000
N        0.92110000      -2.58110000      -2.34410000
C        2.12780000      -2.85830000      -1.78910000
C        2.94270000      -3.30480000      -2.80850000
C        2.12580000      -3.25590000      -3.95620000
N        0.90200000      -2.81540000      -3.67490000
H        1.52140000       1.45820000      -0.85430000
H        0.20870000       1.44810000       0.35400000
H        1.84530000       0.90440000       0.81130000
H       -1.10830000      -0.17150000      -1.03750000
H        0.18830000       0.00370000      -2.24630000
H       -0.45930000      -2.60180000      -0.77990000
H       -1.08620000      -2.18730000      -2.39100000
H        2.30240000      -2.70020000      -0.73780000
H        3.96990000      -3.62200000      -2.73070000
H        2.37340000      -3.52850000      -4.97180000
