15
Properties=species:S:1:pos:R:3 gdb_5769=T pbc="F F F"
C        0.01910000       1.56120000      -0.00290000
N        1.23490000       0.74030000      -0.03450000
C       -0.06880000       0.06770000       0.04480000
C       -0.33380000      -0.67090000       1.29320000
C        0.44100000      -0.94590000       2.39190000
N       -0.26690000      -1.66930000       3.32550000
C       -1.45870000      -1.83520000       2.80400000
N       -1.55660000      -1.25150000       1.57340000
H       -0.12110000       2.12560000       0.91410000
H       -0.30300000       2.06420000      -0.91150000
H        1.60040000       0.68150000      -0.98040000
H       -0.44200000      -0.40650000      -0.86350000
H        1.46930000      -0.66120000       2.54730000
H       -2.28480000      -2.36390000       3.25620000
H       -2.37200000      -1.23130000       0.98380000
