18
Properties=species:S:1:pos:R:3 gdb_66255=T pbc="F F F"
C       -0.19840000       1.58580000       0.01750000
C        0.03400000       0.07010000      -0.04820000
C        0.87640000      -0.44030000      -1.24380000
C        1.46650000      -1.78150000      -0.76100000
C        1.82330000      -1.53060000       0.71280000
C        0.87300000      -0.43120000       1.18390000
O        0.78840000       0.03110000       2.28600000
C       -1.24420000      -0.64830000      -0.00590000
N       -2.24380000      -1.22980000       0.02340000
H        0.75940000       2.10880000      -0.05490000
H       -0.84270000       1.91950000      -0.79940000
H       -0.66290000       1.85090000       0.96940000
H        0.29250000      -0.53170000      -2.16150000
H        1.67760000       0.28540000      -1.42620000
H        0.70810000      -2.56680000      -0.83940000
H        2.32490000      -2.09340000      -1.35920000
H        1.74490000      -2.40520000       1.36320000
H        2.84410000      -1.14430000       0.82560000
