16
Properties=species:S:1:pos:R:3 gdb_1169=T pbc="F F F"
C       -0.03410000       1.56340000      -0.01120000
C        0.02410000       0.02370000       0.03540000
N        0.83770000      -0.37250000       1.19450000
C       -1.41610000      -0.57980000       0.07510000
N       -2.08050000      -0.18990000       1.31850000
C        0.67750000      -0.47300000      -1.18860000
N        1.15420000      -0.88110000      -2.15880000
H        0.97530000       1.97340000      -0.06780000
H       -0.61360000       1.91360000      -0.87010000
H       -0.50040000       1.93120000       0.90720000
H        0.24100000      -0.24460000       2.01110000
H        1.04080000      -1.36780000       1.14430000
H       -1.95930000      -0.28800000      -0.83610000
H       -1.32230000      -1.67010000       0.05890000
H       -2.57170000       0.69010000       1.20810000
H       -2.77500000      -0.87900000       1.58120000
