22
Properties=species:S:1:pos:R:3 gdb_119718=T pbc="F F F"
C        0.60510000       1.46610000      -0.12160000
O        0.91410000       0.09540000      -0.18190000
C       -0.01010000      -0.64090000      -0.95880000
C        0.35780000      -2.09170000      -0.90330000
C        0.70150000      -2.87400000       0.38150000
C        1.75760000      -3.68910000      -0.42820000
C        1.38010000      -2.88740000      -1.68780000
N       -0.03290000      -2.94700000      -2.00280000
C       -0.83620000      -4.14790000      -1.83400000
H        0.61740000       1.93340000      -1.11930000
H       -0.38690000       1.64340000       0.32460000
H        1.36330000       1.94670000       0.50170000
H       -1.03390000      -0.48980000      -0.56960000
H       -0.00850000      -0.30600000      -2.00790000
H        1.16290000      -2.22530000       1.12670000
H       -0.11690000      -3.42890000       0.85080000
H        2.77820000      -3.48130000      -0.10080000
H        1.62430000      -4.77380000      -0.48260000
H        2.06410000      -2.56500000      -2.46650000
H       -0.60360000      -4.74730000      -0.94310000
H       -1.89150000      -3.86180000      -1.78340000
H       -0.70160000      -4.78370000      -2.71470000
