20
Properties=species:S:1:pos:R:3 gdb_78324=T pbc="F F F"
C       -0.05630000       1.48170000      -0.03840000
C        0.00480000      -0.02480000      -0.11750000
C        0.84460000      -0.67050000      -1.13940000
N        1.29880000      -0.59320000       0.32300000
C        1.21240000      -2.10760000       0.38990000
C       -0.12250000      -2.78630000       0.71830000
O       -0.53000000      -2.73820000      -0.67530000
C        0.76930000      -2.21030000      -1.07760000
C        1.42090000      -3.00250000      -2.17640000
H        0.89870000       1.92570000      -0.33170000
H       -0.84020000       1.87010000      -0.69690000
H       -0.27740000       1.80400000       0.98410000
H       -0.91300000      -0.53320000       0.16100000
H        1.36070000      -0.11310000      -1.91740000
H        2.13440000      -2.52760000       0.78950000
H       -0.01420000      -3.82240000       1.06370000
H       -0.81610000      -2.25910000       1.38310000
H        0.83130000      -2.92210000      -3.09690000
H        2.42700000      -2.62380000      -2.38290000
H        1.48930000      -4.06020000      -1.90770000
