19
Properties=species:S:1:pos:R:3 gdb_116411=T pbc="F F F"
C       -0.10550000       1.36870000      -0.00130000
O        0.15550000      -0.02350000       0.05060000
C        0.64340000      -0.57550000      -1.13650000
C        1.25480000      -1.95140000      -0.78150000
O        1.74570000      -2.61540000      -1.92560000
C        0.72030000      -2.91700000      -2.85180000
C        0.06030000      -1.63070000      -3.38620000
C       -0.42220000      -0.77920000      -2.22180000
O       -1.54510000      -0.34290000      -2.13270000
H        0.79660000       1.92980000      -0.29150000
H       -0.91700000       1.60150000      -0.69740000
H       -0.39630000       1.67060000       1.00750000
H        1.44680000       0.04530000      -1.57380000
H        2.09570000      -1.81120000      -0.09930000
H        0.48740000      -2.55080000      -0.26640000
H        1.18750000      -3.48010000      -3.66360000
H       -0.04260000      -3.56040000      -2.38390000
H        0.81200000      -1.06680000      -3.95230000
H       -0.78380000      -1.85010000      -4.04500000
