14
Properties=species:S:1:pos:R:3 gdb_27515=T pbc="F F F"
O       -0.13780000       1.31420000       0.10760000
C        0.05940000      -0.00900000      -0.02660000
C        1.23630000      -0.66450000       0.13260000
C        1.28070000      -2.09860000      -0.04830000
O        2.25730000      -2.81380000       0.06090000
N        0.03280000      -2.67370000      -0.38570000
C       -1.18070000      -2.03230000      -0.55440000
N       -2.31630000      -2.52710000      -0.85760000
N       -1.09250000      -0.65610000      -0.35350000
H        0.69790000       1.73520000       0.33830000
H        2.15030000      -0.15010000       0.39200000
H        0.05880000      -3.67470000      -0.51310000
H       -2.26740000      -3.53530000      -0.98120000
H       -1.94920000      -0.13560000      -0.46360000
