21
Properties=species:S:1:pos:R:3 gdb_119409=T pbc="F F F"
O       -0.12710000       1.47400000       0.05360000
C        0.02050000       0.06220000       0.07100000
C       -1.37050000      -0.54410000      -0.09570000
C       -1.40310000      -2.05520000      -0.02470000
C       -1.02420000      -2.88390000       1.25500000
C       -1.79510000      -3.97700000       0.47950000
C       -2.74760000      -2.86120000      -0.00510000
O       -0.96270000      -4.22270000      -0.66640000
C       -0.64370000      -2.87790000      -1.08400000
H        0.74360000       1.86930000       0.15470000
H        0.68400000      -0.27610000      -0.74060000
H        0.46440000      -0.28080000       1.01950000
H       -2.01620000      -0.12420000       0.68460000
H       -1.78420000      -0.20740000      -1.05500000
H        0.03200000      -3.07310000       1.46380000
H       -1.54340000      -2.53190000       2.14880000
H       -2.11990000      -4.92390000       0.90690000
H       -3.43460000      -2.50370000       0.76450000
H       -3.26920000      -3.02460000      -0.95190000
H       -1.00530000      -2.69930000      -2.10460000
H        0.44260000      -2.72970000      -1.06240000
