19
Properties=species:S:1:pos:R:3 gdb_65177=T pbc="F F F"
O        0.18310000       1.35220000       0.37770000
C        0.08410000      -0.01210000       0.07810000
C        1.14490000      -0.61080000      -0.81610000
C        1.17010000      -0.85370000       0.68050000
C       -1.31460000      -0.56110000       0.01900000
C       -2.43100000       0.11100000       0.75630000
C       -2.41670000       0.15270000      -0.76730000
C       -2.16340000       1.37250000      -1.47840000
C       -1.95730000       2.38110000      -2.10540000
H       -0.17230000       1.84140000      -0.37710000
H        0.87280000      -1.43150000      -1.47150000
H        1.88180000       0.07300000      -1.22140000
H        1.91670000      -0.32340000       1.25990000
H        0.91880000      -1.84110000       1.05270000
H       -1.35310000      -1.64410000      -0.05340000
H       -3.19650000      -0.49340000       1.22920000
H       -2.18130000       1.03340000       1.26600000
H       -3.12610000      -0.50310000      -1.26370000
H       -1.79560000       3.27390000      -2.65720000
