19
Properties=species:S:1:pos:R:3 gdb_74290=T pbc="F F F"
C       -0.00100000       1.53520000       0.06370000
C        0.04230000       0.04330000       0.00840000
C       -0.04930000      -0.74430000      -1.06050000
C        0.02440000      -2.21220000      -0.68010000
C        1.01760000      -3.02660000      -1.52730000
N        0.45930000      -2.14060000       0.72850000
C        0.18210000      -0.79720000       1.25500000
C       -1.32840000      -2.82100000      -0.80210000
N       -2.37720000      -3.30620000      -0.85950000
H        0.91790000       1.93990000       0.50520000
H       -0.12570000       1.97170000      -0.93010000
H       -0.83000000       1.87960000       0.69450000
H       -0.18400000      -0.43050000      -2.08780000
H        2.00500000      -2.56760000      -1.44390000
H        1.07620000      -4.05640000      -1.16420000
H        0.71180000      -3.04950000      -2.57760000
H        0.05890000      -2.87960000       1.29190000
H        1.00610000      -0.45530000       1.89660000
H       -0.73850000      -0.73630000       1.86110000
