21
Properties=species:S:1:pos:R:3 gdb_119932=T pbc="F F F"
C       -0.00560000       1.47500000       0.23880000
C       -0.19320000      -0.01230000       0.47790000
O        1.06990000      -0.56730000       0.83410000
C        1.02570000      -1.92400000       1.08840000
C        2.07720000      -2.48670000       1.98560000
C        3.14360000      -1.60120000       2.58730000
C        0.62360000      -2.42430000       2.48480000
C        0.24090000      -1.49800000       3.50570000
C       -0.09590000      -0.73570000       4.37460000
H        0.72210000       1.64940000      -0.55890000
H       -0.95520000       1.93540000      -0.04980000
H        0.35590000       1.96410000       1.14760000
H       -0.91730000      -0.19300000       1.28340000
H       -0.57070000      -0.50940000      -0.43050000
H        0.67600000      -2.53120000       0.25070000
H        2.40790000      -3.49070000       1.73350000
H        2.75700000      -0.60130000       2.78680000
H        3.51210000      -2.02330000       3.52750000
H        3.99150000      -1.50650000       1.90100000
H        0.09070000      -3.37100000       2.50920000
H       -0.39000000      -0.06240000       5.14070000
