23
Properties=species:S:1:pos:R:3 gdb_103492=T pbc="F F F"
C       -0.33170000       1.46430000       0.02040000
C        0.07380000      -0.01000000      -0.11330000
C        0.73060000      -0.55830000       1.13930000
O        1.94730000       0.09880000       1.44230000
C       -0.00410000      -1.06100000       2.36760000
C       -1.46580000      -1.48840000       2.30400000
C       -1.57060000      -2.55170000       1.17670000
C       -0.12430000      -3.04260000       0.89210000
C        0.81630000      -2.01490000       1.50770000
H        0.53990000       2.09830000       0.21470000
H       -0.79810000       1.82880000      -0.89960000
H       -1.04570000       1.60890000       0.83870000
H       -0.80300000      -0.60320000      -0.38090000
H        0.78790000      -0.11680000      -0.93940000
H        1.73100000       0.95830000       1.81920000
H        0.38650000      -0.71770000       3.32020000
H       -1.73650000      -1.92850000       3.27050000
H       -2.15720000      -0.65440000       2.13880000
H       -2.22440000      -3.37910000       1.46640000
H       -2.01640000      -2.11870000       0.27780000
H        0.05550000      -4.00690000       1.37990000
H        0.04840000      -3.19800000      -0.17860000
H        1.79480000      -2.34420000       1.83890000
