17
Properties=species:S:1:pos:R:3 gdb_127225=T pbc="F F F"
C       -0.06400000       1.40760000       0.09960000
N        0.02600000      -0.03350000      -0.00260000
C        0.06490000      -0.78690000      -1.13400000
C        0.06550000      -2.10990000      -0.75020000
C        0.11580000      -3.33310000      -1.60880000
C        0.01940000      -2.04670000       0.67130000
N       -0.00760000      -0.77830000       1.10980000
C        0.01150000      -3.14640000       1.56480000
C        0.00530000      -4.11530000       2.27960000
H        0.37830000       1.86100000      -0.78970000
H       -1.10560000       1.73390000       0.18950000
H        0.48520000       1.72940000       0.98520000
H        0.09280000      -0.33180000      -2.11210000
H        1.00480000      -3.93660000      -1.39530000
H       -0.75320000      -3.97770000      -1.43750000
H        0.13530000      -3.07030000      -2.66990000
H        0.00020000      -4.95900000       2.92390000
