16
Properties=species:S:1:pos:R:3 gdb_9560=T pbc="F F F"
C       -0.04310000       1.54230000      -0.07690000
C        0.01300000       0.02420000      -0.03140000
C        1.34410000      -0.66610000      -0.24210000
C        0.73840000      -0.66880000       1.14620000
C        1.31500000       0.10280000       2.20550000
C        1.79500000       0.74240000       3.10480000
C       -1.16410000      -0.64740000      -0.51550000
C       -2.15670000      -1.19280000      -0.92140000
H        0.86560000       1.97550000       0.34690000
H       -0.14850000       1.88650000      -1.11000000
H       -0.89720000       1.91490000       0.49580000
H        1.35450000      -1.60450000      -0.78300000
H        2.20500000      -0.02760000      -0.40380000
H        0.28610000      -1.60490000       1.45710000
H        2.21800000       1.30450000       3.90000000
H       -3.03170000      -1.67580000      -1.27980000
