17
Properties=species:S:1:pos:R:3 gdb_34123=T pbc="F F F"
N        0.06480000      -1.11350000      -0.08510000
C        0.04080000       0.04090000      -0.03140000
C       -0.01490000       1.48350000       0.03360000
C       -0.40500000       2.25110000       1.32310000
C        0.42840000       3.33650000       0.64780000
C       -0.03490000       3.55520000      -0.85120000
C        1.37620000       3.05740000      -1.21290000
N        1.33870000       2.25310000       0.05590000
C       -0.83050000       2.24990000      -1.04530000
H       -1.46750000       2.40430000       1.51680000
H        0.10740000       1.85950000       2.20280000
H        0.90200000       4.16100000       1.17890000
H       -0.46570000       4.48420000      -1.22480000
H        1.51880000       2.49600000      -2.14140000
H        2.16190000       3.81060000      -1.10790000
H       -0.73400000       1.83650000      -2.05140000
H       -1.88930000       2.30850000      -0.78540000
