23
Properties=species:S:1:pos:R:3 gdb_117768=T pbc="F F F"
C       -0.12030000       1.63470000      -0.06930000
C        0.01990000       0.11070000       0.00220000
C       -1.34250000      -0.58630000       0.07210000
C       -1.32980000      -2.13830000       0.05790000
C       -0.55320000      -2.70840000       1.26950000
N       -2.73530000      -2.56710000      -0.01520000
C       -2.99740000      -4.00260000      -0.05310000
C       -0.66340000      -2.59620000      -1.18240000
N       -0.12060000      -2.95490000      -2.13760000
H        0.85970000       2.11850000      -0.11710000
H       -0.68630000       1.93830000      -0.95640000
H       -0.64410000       2.02880000       0.80880000
H        0.56780000      -0.24850000      -0.87670000
H        0.62610000      -0.15400000       0.87630000
H       -1.86210000      -0.28250000       0.99150000
H       -1.97050000      -0.26350000      -0.76470000
H       -1.01870000      -2.35130000       2.19420000
H       -0.56950000      -3.80030000       1.27110000
H        0.49220000      -2.39150000       1.26240000
H       -3.23410000      -2.13850000       0.75720000
H       -4.07490000      -4.15400000      -0.16260000
H       -2.51140000      -4.43730000      -0.93170000
H       -2.66470000      -4.56580000       0.83340000
