15
Properties=species:S:1:pos:R:3 gdb_3489=T pbc="F F F"
C       -0.03200000       1.58760000       0.06820000
C        1.49430000       1.36030000      -0.01390000
O        1.77740000       0.74260000       1.25210000
C        1.02910000      -0.46410000       1.03250000
C        1.80350000      -1.12070000      -0.13250000
C        1.23380000       0.07390000      -0.91050000
C       -0.05520000       0.05430000      -0.00780000
H       -0.40770000       2.10130000       0.95650000
H       -0.44330000       2.02870000      -0.84400000
H        2.22100000       2.13800000      -0.24250000
H        0.79730000      -0.95920000       1.97400000
H        2.88330000      -1.23240000      -0.00680000
H        1.34830000      -2.05660000      -0.46820000
H        1.22210000       0.17700000      -1.99390000
H       -0.93350000      -0.55700000      -0.20630000
