19
Properties=species:S:1:pos:R:3 gdb_82144=T pbc="F F F"
C        0.00070000       1.64440000      -0.06200000
C        0.03300000       0.12160000      -0.04900000
C        1.06950000      -0.55780000      -0.96020000
O        2.36820000      -0.17840000      -0.48370000
C        1.69530000      -1.26130000       0.16810000
C        0.70160000      -0.65720000       1.16970000
C        1.28780000       0.12110000       2.35340000
C        0.20520000       0.59890000       3.29440000
O       -0.04430000       1.74950000       3.54670000
H        1.01340000       2.05330000      -0.02080000
H       -0.47160000       2.00710000      -0.98140000
H       -0.56170000       2.04490000       0.78610000
H       -0.96630000      -0.28720000      -0.22900000
H        0.99040000      -0.83360000      -2.00560000
H        2.21680000      -2.21100000       0.21630000
H        0.01380000      -1.42920000       1.53300000
H        1.93850000      -0.55830000       2.92370000
H        1.88580000       0.96980000       2.01750000
H       -0.38930000      -0.22650000       3.75600000
