17
Properties=species:S:1:pos:R:3 gdb_72048=T pbc="F F F"
C       -0.15560000       1.44960000      -0.02790000
C        0.02760000      -0.03600000      -0.03610000
C        0.97310000      -0.88350000      -0.89340000
C        0.16010000      -2.09710000      -0.38780000
O        0.46360000      -2.14420000       1.03430000
C       -0.28740000      -0.94330000       1.15680000
C       -1.06900000      -1.13010000      -0.12060000
C       -2.43130000      -1.10430000      -0.47320000
C       -3.59390000      -1.08160000      -0.78960000
H        0.74190000       1.95200000       0.35040000
H       -0.35850000       1.83280000      -1.03370000
H       -0.99590000       1.73940000       0.61170000
H        0.81280000      -0.69850000      -1.95880000
H        2.04190000      -0.88620000      -0.65560000
H        0.15230000      -3.07200000      -0.86860000
H       -0.59820000      -0.60610000       2.13720000
H       -4.61970000      -1.06570000      -1.06210000
