16
Properties=species:S:1:pos:R:3 gdb_8353=T pbc="F F F"
O        0.03240000       0.02950000       0.00110000
C        0.01010000       1.22320000       0.00760000
O        1.13530000       1.96830000       0.00240000
C        0.99020000       3.36680000       0.01130000
C        0.34700000       4.26310000       1.10880000
C        0.92690000       5.21580000       0.02180000
C        2.20190000       4.31620000       0.00190000
C        0.32120000       4.27460000      -1.06110000
H       -0.91310000       1.83040000       0.01790000
H       -0.74140000       4.23380000       1.20260000
H        0.84180000       4.26940000       2.08260000
H        0.89370000       6.30140000       0.02800000
H        2.82220000       4.32280000       0.90080000
H        2.80070000       4.33230000      -0.91130000
H        0.79280000       4.29120000      -2.04630000
H       -0.76910000       4.24640000      -1.12940000
