16
Properties=species:S:1:pos:R:3 gdb_30400=T pbc="F F F"
C        0.01290000       1.43990000       0.08600000
N       -0.00940000      -0.00620000       0.05010000
C       -1.11020000      -0.62470000      -0.07230000
N       -2.37500000       0.01750000      -0.18140000
C       -3.39590000      -0.71660000      -0.29860000
O       -3.41430000      -2.07950000      -0.33200000
C       -2.16500000      -2.67430000      -0.22330000
C       -2.26920000      -4.16110000      -0.26810000
N       -1.07790000      -2.03670000      -0.10190000
H        0.65940000       1.79990000      -0.72370000
H       -0.96910000       1.91700000       0.00020000
H        0.48700000       1.75930000       1.02210000
H       -4.40250000      -0.31590000      -0.38800000
H       -2.73380000      -4.47960000      -1.20700000
H       -1.27390000      -4.59400000      -0.18050000
H       -2.90590000      -4.52040000       0.54710000
