19
Properties=species:S:1:pos:R:3 gdb_71661=T pbc="F F F"
O       -0.10020000       1.36840000       0.02530000
C        0.05460000      -0.02600000       0.00750000
C        0.78390000      -0.68410000      -1.19590000
C        0.37400000      -2.11430000      -0.82310000
C       -1.16720000      -2.05780000      -0.77100000
C       -1.16650000      -2.07700000       0.73530000
C       -1.32140000      -0.75890000      -0.00110000
C        0.37470000      -2.13470000       0.78450000
C        0.78500000      -0.71450000       1.19310000
H        0.77680000       1.76510000       0.02860000
H        0.36870000      -0.36840000      -2.15780000
H        1.86510000      -0.50190000      -1.18690000
H        0.85210000      -2.94740000      -1.33410000
H       -1.88420000      -2.44760000      -1.48290000
H       -1.88290000      -2.48480000       1.43770000
H       -2.24550000      -0.19760000       0.00640000
H        0.85330000      -2.98060000       1.27370000
H        1.86620000      -0.53210000       1.18780000
H        0.37070000      -0.42330000       2.16310000
