18
Properties=species:S:1:pos:R:3 gdb_93978=T pbc="F F F"
C        0.04680000       1.55440000      -0.15540000
C        0.05060000       0.02620000      -0.10000000
C        1.04270000      -0.56840000      -1.09550000
O        1.08110000      -2.00150000      -1.01710000
C        0.96170000      -2.52360000       0.21820000
C        1.18520000      -4.00960000       0.26460000
O        1.44290000      -4.69210000      -0.69070000
N        0.68660000      -1.94330000       1.31640000
C        0.40530000      -0.51320000       1.29270000
H        1.03830000       1.95980000       0.07700000
H       -0.24040000       1.91850000      -1.14730000
H       -0.66020000       1.96960000       0.56930000
H       -0.94720000      -0.34630000      -0.36620000
H        0.77750000      -0.33830000      -2.13010000
H        2.05460000      -0.18400000      -0.90600000
H        1.07850000      -4.40520000       1.29380000
H        1.28300000       0.01500000       1.69330000
H       -0.40840000      -0.31940000       2.00100000
