19
Properties=species:S:1:pos:R:3 gdb_83332=T pbc="F F F"
C       -0.01800000       1.52770000       0.04000000
C        0.01970000       0.02130000       0.06990000
C        0.49450000      -0.74390000      -1.16640000
O        0.39480000      -2.11950000      -0.69180000
C       -0.12370000      -1.93380000       0.64000000
C        0.78120000      -0.80880000       1.18570000
O        2.16510000      -0.97870000       1.11680000
C       -1.22110000      -0.85370000       0.43480000
O       -1.85810000      -0.36920000       1.59330000
H        0.99570000       1.93820000      -0.02180000
H       -0.58550000       1.90150000      -0.82010000
H       -0.48940000       1.91550000       0.94730000
H       -0.14740000      -0.60580000      -2.04340000
H        1.53060000      -0.51560000      -1.44120000
H       -0.27880000      -2.90190000       1.11600000
H        0.51260000      -0.47100000       2.18470000
H        2.32820000      -1.61070000       0.40500000
H       -1.92920000      -1.06100000      -0.37830000
H       -2.48330000      -1.03500000       1.89670000
