14
Properties=species:S:1:pos:R:3 gdb_2140=T pbc="F F F"
C        0.00430000       1.45250000       0.04490000
N       -0.00430000       0.00790000       0.01150000
C       -0.10480000      -0.81640000      -1.09760000
N       -0.09110000      -2.07630000      -0.88440000
C        0.03610000      -2.21610000       0.57350000
C        0.09160000      -0.79620000       1.14250000
N        0.19630000      -0.31190000       2.31480000
H        0.93250000       1.82140000       0.49230000
H       -0.08300000       1.83500000      -0.97420000
H       -0.82960000       1.82840000       0.64590000
H       -0.18920000      -0.36430000      -2.08130000
H       -0.81510000      -2.77430000       0.98030000
H        0.94060000      -2.78140000       0.82640000
H        0.25410000      -1.05670000       3.00760000
