21
Properties=species:S:1:pos:R:3 gdb_68873=T pbc="F F F"
C       -0.00700000       1.48190000      -0.03250000
C       -0.04000000      -0.01240000       0.08410000
O        1.18350000      -0.72650000      -0.20230000
C        0.57980000      -0.86920000       1.10310000
C        1.40520000      -0.47040000       2.28940000
C       -0.46750000      -2.01220000       1.19960000
C       -1.77820000      -1.15020000       1.24280000
C       -1.33360000      -0.81490000      -0.22440000
C       -0.82660000      -2.28070000      -0.28640000
H        0.89260000       1.89650000       0.42920000
H       -0.01540000       1.78640000      -1.08520000
H       -0.88510000       1.92630000       0.44870000
H        1.91750000       0.47920000       2.11560000
H        0.77710000      -0.37200000       3.18150000
H        2.16690000      -1.22930000       2.50140000
H       -0.27310000      -2.81680000       1.90950000
H       -2.69120000      -1.74950000       1.29430000
H       -1.82610000      -0.32750000       1.96370000
H       -2.02050000      -0.40120000      -0.96340000
H       -0.02010000      -2.51830000      -0.97670000
H       -1.65190000      -2.98930000      -0.38020000
