19
Properties=species:S:1:pos:R:3 gdb_60786=T pbc="F F F"
C       -0.05810000       1.58480000       0.07530000
C       -0.01690000       0.04240000       0.02830000
C        0.74490000      -0.52230000       1.24980000
C       -1.38380000      -0.48730000       0.04660000
C       -2.49920000      -0.93190000       0.09560000
C        0.65090000      -0.43060000      -1.31410000
O       -0.06740000       0.02810000      -2.42150000
C        2.10270000       0.00140000      -1.43270000
O        2.48440000       0.67010000      -2.36410000
H        0.95610000       1.99730000       0.11610000
H       -0.55930000       1.97360000      -0.81250000
H       -0.60110000       1.92400000       0.96070000
H        0.18190000      -0.31260000       2.16240000
H        0.86720000      -1.60730000       1.17590000
H        1.73250000      -0.06330000       1.35410000
H       -3.48770000      -1.31900000       0.12190000
H        0.65940000      -1.53520000      -1.29040000
H        0.57100000       0.51950000      -2.96310000
H        2.80140000      -0.34300000      -0.64740000
