20
Properties=species:S:1:pos:R:3 gdb_62647=T pbc="F F F"
C       -0.09240000       1.58130000      -0.02620000
C       -0.06860000       0.06330000      -0.02330000
O       -1.33770000      -0.49300000      -0.30610000
C        1.15550000      -0.64350000      -0.64650000
N        2.03050000      -0.24620000       0.57320000
C        2.48370000      -1.69450000       0.69620000
C        1.03150000      -1.90900000       0.27320000
C        0.27720000      -3.19260000       0.04700000
C        0.64000000      -0.65420000       1.13090000
H        0.88930000       1.97970000       0.23850000
H       -0.35950000       1.96180000      -1.02070000
H       -0.83570000       1.95140000       0.68710000
H       -1.69570000      -0.04170000      -1.07770000
H        1.56730000      -0.58930000      -1.65800000
H        3.27550000      -1.96410000      -0.01220000
H        2.77350000      -1.97480000       1.71550000
H        0.26290000      -3.79950000       0.95960000
H       -0.75370000      -2.98730000      -0.24850000
H        0.75480000      -3.78920000      -0.73890000
H        0.44080000      -0.61160000       2.20440000
