18
Properties=species:S:1:pos:R:3 gdb_71191=T pbc="F F F"
C        0.10700000       1.62660000       0.15080000
C        0.16220000       0.12590000       0.14300000
C       -1.10700000      -0.78190000       0.03390000
C       -0.25900000      -1.86570000       0.69570000
C        1.17970000      -1.67110000       0.16150000
C        0.67710000      -0.83700000       1.29690000
N        1.13840000      -0.55460000      -0.76680000
C        1.12170000      -0.62190000      -2.13090000
O        1.55600000      -1.54550000      -2.78530000
H        1.10320000       2.05330000       0.29920000
H       -0.29450000       2.01290000      -0.79220000
H       -0.54490000       1.97580000       0.95740000
H       -1.89930000      -0.43730000       0.70380000
H       -1.50960000      -0.95070000      -0.97170000
H       -0.58050000      -2.80660000       1.12240000
H        1.92670000      -2.44990000       0.12780000
H        1.05480000      -0.65630000       2.29250000
H        0.72770000       0.31090000      -2.58560000
