16
Properties=species:S:1:pos:R:3 gdb_127525=T pbc="F F F"
C        0.14380000       1.38920000       0.05970000
N        0.12220000      -0.05950000       0.06920000
N        0.16290000      -0.75000000      -1.10900000
C        0.09090000      -1.99890000      -0.68550000
O        0.10420000      -3.02770000      -1.54430000
N        0.01480000      -2.16810000       0.65820000
C        0.02940000      -0.91540000       1.10590000
C       -0.04310000      -0.51870000       2.55040000
O        1.01210000       0.34680000       2.95370000
H        0.89290000       1.72390000      -0.66040000
H       -0.83100000       1.78970000      -0.23580000
H        0.41040000       1.73890000       1.05680000
H        0.04300000      -3.82950000      -1.01160000
H       -0.96520000       0.03620000       2.75460000
H       -0.07290000      -1.44310000       3.13920000
H        1.84330000      -0.12090000       2.81740000
