19
Properties=species:S:1:pos:R:3 gdb_86805=T pbc="F F F"
C        0.04810000       1.40750000      -0.22170000
C       -0.05500000      -0.08510000      -0.01950000
O       -0.37710000      -0.63570000       1.00250000
O        0.26680000      -0.74320000      -1.15720000
C        0.22080000      -2.17170000      -1.09040000
C       -1.14720000      -2.85720000      -1.30900000
C       -0.41360000      -3.87680000      -2.22620000
O       -1.04530000      -4.36740000      -3.37820000
C        0.75880000      -2.86140000      -2.35670000
H       -0.18660000       1.91720000       0.71180000
H        1.05550000       1.67420000      -0.55290000
H       -0.64590000       1.72730000      -1.00450000
H        0.70390000      -2.50000000      -0.16890000
H       -1.69200000      -3.21970000      -0.43680000
H       -1.79980000      -2.20790000      -1.90340000
H       -0.10630000      -4.76220000      -1.66300000
H       -1.33950000      -3.61430000      -3.90140000
H        0.60860000      -2.21210000      -3.22600000
H        1.78500000      -3.23330000      -2.35800000
