17
Properties=species:S:1:pos:R:3 gdb_4548=T pbc="F F F"
C       -0.00320000       1.44350000       0.03990000
N       -0.02260000      -0.00190000       0.01520000
C        0.02250000      -0.76290000      -1.14150000
C        0.08540000      -2.08240000      -0.76470000
O        0.12530000      -3.13020000      -1.64240000
C        0.08840000      -2.12960000       0.65520000
C        0.02510000      -0.82590000       1.11150000
C        0.01010000      -0.30620000       2.51160000
H        1.00410000       1.84070000       0.21920000
H       -0.35650000       1.82220000      -0.92140000
H       -0.66720000       1.82430000       0.82070000
H       -0.00030000      -0.30730000      -2.11690000
H        0.16860000      -3.94450000      -1.13390000
H        0.11810000      -3.01340000       1.27650000
H        0.86670000       0.34440000       2.72960000
H       -0.89710000       0.26910000       2.73770000
H        0.04820000      -1.14380000       3.21180000
