16
Properties=species:S:1:pos:R:3 gdb_26930=T pbc="F F F"
C       -0.03050000       1.50470000       0.00350000
C        0.00260000       0.00920000       0.00950000
C       -0.02290000      -0.80910000      -1.06220000
O        0.02230000      -2.15010000      -0.66990000
C        0.07690000      -2.15230000       0.66640000
N        0.17140000      -3.32210000       1.32160000
C        0.06380000      -0.85770000       1.17420000
C        0.06410000      -0.58570000       2.57990000
O        0.09490000      -1.45710000       3.44830000
H        0.86170000       1.92610000       0.48010000
H       -0.08060000       1.89240000      -1.01730000
H       -0.89860000       1.88800000       0.55170000
H       -0.06840000      -0.65120000      -2.12570000
H       -0.09810000      -4.17290000       0.85680000
H        0.07280000      -3.23200000       2.32710000
H        0.02600000       0.48400000       2.87220000
