23
Properties=species:S:1:pos:R:3 gdb_68783=T pbc="F F F"
C       -0.13540000       1.49150000       0.07540000
C        0.01770000       0.00520000       0.10050000
C        1.19530000      -0.79300000      -0.37280000
C        0.66700000      -0.98920000       1.04200000
C        1.52740000      -0.82800000       2.26280000
C       -0.67950000      -1.74080000       0.97110000
C       -0.69980000      -3.17130000       0.45130000
C       -1.51870000      -1.59210000       2.23590000
O       -1.17150000      -0.78550000      -0.03230000
H        0.82130000       1.98080000       0.28130000
H       -0.47840000       1.82630000      -0.91040000
H       -0.86700000       1.82490000       0.81820000
H        1.06270000      -1.54230000      -1.14760000
H        2.14170000      -0.26080000      -0.41480000
H        2.25230000      -0.01900000       2.12470000
H        0.93650000      -0.59260000       3.15400000
H        2.09860000      -1.74080000       2.47320000
H       -0.31530000      -3.86020000       1.21130000
H       -1.72570000      -3.47030000       0.21230000
H       -0.09640000      -3.28280000      -0.45190000
H       -1.52160000      -0.55530000       2.58260000
H       -2.55240000      -1.88460000       2.02760000
H       -1.13900000      -2.22850000       3.04270000
