20
Properties=species:S:1:pos:R:3 gdb_89544=T pbc="F F F"
O        0.68890000       0.58790000      -0.79810000
C       -0.01090000      -0.26850000       0.06520000
C        0.11310000      -0.07610000       1.60760000
C       -1.38680000      -0.39020000       1.69180000
C       -1.55680000      -0.14480000       0.19120000
C       -2.07840000      -1.44120000       2.45740000
C       -1.49940000      -1.59700000       3.85990000
C       -1.72430000      -0.07110000       4.01860000
N       -2.38730000       0.04400000       2.66810000
H        0.42610000       1.49290000      -0.59860000
H        0.28190000      -1.28100000      -0.22470000
H        0.82130000      -0.71080000       2.14560000
H        0.31900000       0.97310000       1.85370000
H       -1.89330000       0.88030000      -0.00240000
H       -2.17750000      -0.83550000      -0.38420000
H       -2.79810000      -2.10980000       1.99280000
H       -2.13600000      -2.18570000       4.52270000
H       -0.47550000      -1.97790000       3.92760000
H       -2.43440000       0.19320000       4.80410000
H       -0.83250000       0.55620000       4.12160000
