19
Properties=species:S:1:pos:R:3 gdb_15250=T pbc="F F F"
C       -0.33860000       1.49860000      -0.31450000
C        0.00510000       0.02680000      -0.05010000
C        0.92030000      -0.56210000      -1.10400000
C        1.02790000      -2.04700000      -1.38800000
C        0.22270000      -3.10160000      -0.66400000
N        0.41050000      -1.14390000      -2.33340000
C       -0.86210000      -1.18180000      -2.84700000
O       -1.43410000      -2.18250000      -3.21580000
H        0.56760000       2.10970000      -0.38340000
H       -0.89120000       1.61880000      -1.25180000
H       -0.95550000       1.90540000       0.49200000
H        0.50980000      -0.05820000       0.92100000
H       -0.91510000      -0.56110000       0.02340000
H        1.83400000       0.01640000      -1.25130000
H        2.01090000      -2.39230000      -1.70890000
H       -0.73280000      -2.72190000      -0.29850000
H        0.00540000      -3.93450000      -1.33760000
H        0.79370000      -3.48410000       0.18830000
H       -1.28840000      -0.16620000      -2.96700000
