18
Properties=species:S:1:pos:R:3 gdb_37459=T pbc="F F F"
C        0.00470000       1.44980000      -0.20180000
C        1.27600000       0.68480000      -0.02010000
C        1.91630000       0.53540000       1.37330000
C        1.62310000       1.72700000       2.29780000
O        0.25260000       1.56250000       2.69060000
C       -0.04700000       0.18850000       2.62530000
C        1.09220000      -0.59460000       2.05510000
C       -0.21360000      -0.56030000       1.29330000
N       -0.01470000      -0.01760000      -0.04450000
H       -0.36760000       2.06180000       0.60880000
H       -0.26330000       1.78750000      -1.20020000
H        1.92180000       0.52350000      -0.88060000
H        2.98220000       0.31370000       1.30500000
H        2.26940000       1.71200000       3.18730000
H        1.72070000       2.69800000       1.80440000
H       -0.64040000      -0.15590000       3.46650000
H        1.55700000      -1.46530000       2.50080000
H       -0.89750000      -1.40250000       1.32350000
