21
Properties=species:S:1:pos:R:3 gdb_121571=T pbc="F F F"
O       -0.10590000       0.91700000       1.26760000
C       -0.09420000      -0.02440000       0.20640000
C       -1.40740000      -0.79420000       0.25140000
C       -1.49990000      -1.85490000      -0.86200000
C       -2.75260000      -2.60230000      -0.83690000
C       -3.79680000      -3.20190000      -0.80750000
C       -5.05150000      -3.94110000      -0.74740000
C       -5.28040000      -4.60090000       0.61670000
O       -6.52120000      -5.28310000       0.54480000
H        0.71910000       1.41000000       1.24230000
H        0.01070000       0.47590000      -0.77090000
H        0.75190000      -0.72540000       0.30320000
H       -1.50570000      -1.27490000       1.23020000
H       -2.23900000      -0.08800000       0.16030000
H       -1.38590000      -1.36820000      -1.84050000
H       -0.65470000      -2.55150000      -0.77430000
H       -5.90040000      -3.27840000      -0.95610000
H       -5.07490000      -4.72310000      -1.51650000
H       -4.44910000      -5.28840000       0.83360000
H       -5.28450000      -3.82800000       1.39960000
H       -6.68680000      -5.69870000       1.39560000
