17
Properties=species:S:1:pos:R:3 gdb_55899=T pbc="F F F"
C        0.00360000       1.39550000       0.63510000
C        0.06620000      -0.01560000       0.08860000
O        1.10120000      -0.53270000      -0.25900000
C       -1.27440000      -0.75120000      -0.02270000
C       -1.09870000      -2.24420000      -0.17650000
O       -1.25270000      -3.04840000       0.98390000
C       -2.20410000      -3.22880000      -0.07240000
C       -3.60250000      -2.79940000       0.22880000
O       -4.56400000      -3.21030000      -0.36880000
H        0.97280000       1.88270000       0.52380000
H       -0.77280000       1.97800000       0.12710000
H       -0.26720000       1.36410000       1.69720000
H       -1.90440000      -0.51550000       0.84000000
H       -1.78690000      -0.33620000      -0.90280000
H       -0.25650000      -2.52640000      -0.80630000
H       -2.12480000      -4.15750000      -0.63590000
H       -3.68840000      -2.07020000       1.06370000
