18
Properties=species:S:1:pos:R:3 gdb_36379=T pbc="F F F"
N       -0.98380000       0.48320000      -1.01500000
C       -0.20520000       0.68060000      -0.18330000
C        0.82610000       0.93880000       0.83830000
N        1.80170000       1.98760000       0.56110000
C        1.98520000       2.52340000      -0.78420000
C        1.40130000       3.37390000       0.29570000
C       -0.02240000       3.83450000       0.25560000
C       -0.57660000       4.55870000       1.43250000
N       -0.29790000       5.27960000       0.18170000
H        0.32780000       1.16280000       1.78750000
H        1.37610000       0.00130000       0.98150000
H        3.01690000       2.64830000      -1.10160000
H        1.30200000       2.19330000      -1.56490000
H        2.06040000       4.08700000       0.79470000
H       -0.69950000       3.24040000      -0.35000000
H       -1.62920000       4.46460000       1.68300000
H        0.08140000       4.71600000       2.28410000
H        0.57040000       5.80420000       0.26790000
