9
Properties=species:S:1:pos:R:3 gdb_21746=T pbc="F F F"
O       -0.07090000       1.35200000       0.00990000
C        1.25300000       1.70960000      -0.00060000
N        2.13550000       0.74710000      -0.01460000
C        1.33150000      -0.36710000      -0.01240000
C        0.01960000      -0.00280000       0.00220000
N       -0.76520000      -1.09390000       0.00410000
N       -0.04990000      -2.12280000      -0.00820000
O        1.44480000      -1.66830000      -0.02030000
H        1.44700000       2.77090000       0.00310000
