19
Properties=species:S:1:pos:R:3 gdb_92805=T pbc="F F F"
O       -0.12190000       1.51290000       0.10340000
C        0.02030000       0.10240000       0.02890000
C        0.50660000      -0.51480000       1.39230000
C       -0.78020000      -0.73760000       2.19060000
C       -1.79890000      -0.73430000       1.33840000
C       -3.22810000      -0.38250000       1.03410000
C       -3.21160000       1.07370000       0.60480000
C       -2.77780000       0.04250000      -0.39160000
C       -1.37210000      -0.54090000      -0.09120000
H        0.73240000       1.88390000       0.34560000
H        0.69840000      -0.16910000      -0.79340000
H        1.06510000      -1.44590000       1.21620000
H        1.19860000       0.16810000       1.90290000
H       -0.80200000      -0.80520000       3.27170000
H       -4.13460000      -0.87920000       1.35510000
H       -4.19380000       1.49860000       0.41770000
H       -2.49010000       1.75760000       1.03560000
H       -3.30770000      -0.10210000      -1.32500000
H       -1.28330000      -1.50930000      -0.60160000
