13
Properties=species:S:1:pos:R:3 gdb_3851=T pbc="F F F"
N        0.09480000       1.41070000       0.06350000
C        0.00070000       0.02230000       0.01060000
C       -1.12640000      -0.78490000       0.02720000
N       -2.45290000      -0.26310000       0.01280000
C       -0.61020000      -2.10450000       0.03980000
N        0.71560000      -2.12850000       0.02470000
N        1.06690000      -0.81170000       0.01620000
H        0.69890000       1.80480000      -0.64880000
H       -0.83790000       1.80060000      -0.03010000
H       -2.94500000      -0.46230000       0.87860000
H       -3.00460000      -0.66810000      -0.73670000
H       -1.16130000      -3.03520000       0.04640000
H        2.04030000      -0.56500000       0.05860000
