17
Properties=species:S:1:pos:R:3 gdb_26767=T pbc="F F F"
C       -0.04330000       1.49660000       0.12750000
C       -0.00970000       0.01340000      -0.01620000
C       -0.03690000      -0.76940000      -1.16220000
N       -0.14720000      -0.26520000      -2.47990000
C       -0.00440000      -2.12670000      -0.75970000
C        0.04660000      -2.15510000       0.62810000
N        0.05580000      -0.84360000       1.05410000
C        0.08810000      -3.23200000       1.53120000
C        0.12660000      -4.14450000       2.31950000
H        0.95020000       1.93780000       0.28720000
H       -0.45910000       1.93890000      -0.78230000
H       -0.67570000       1.80860000       0.96690000
H        0.61590000       0.35680000      -2.72090000
H       -0.16030000      -1.01560000      -3.15910000
H       -0.01770000      -2.99570000      -1.39980000
H        0.08710000      -0.56750000       2.02020000
H        0.15840000      -4.95490000       3.00410000
