24
Properties=species:S:1:pos:R:3 gdb_6892=T pbc="F F F"
C        2.11650000       2.34650000      -0.58590000
C        1.00720000       1.29640000      -0.44200000
C        1.19180000       0.12630000      -1.38990000
C        2.02200000      -1.10280000      -1.05290000
C        2.73820000      -1.28810000       0.26910000
C        0.51670000      -1.22390000      -1.22100000
C       -0.37590000      -1.49510000      -0.02250000
C        0.02000000      -1.90390000      -2.48550000
H        3.09730000       1.91930000      -0.35260000
H        2.16160000       2.73360000      -1.61000000
H        1.95020000       3.19600000       0.08430000
H        0.96730000       0.95660000       0.59730000
H        0.03510000       1.76810000      -0.63890000
H        1.27630000       0.45270000      -2.42610000
H        2.59340000      -1.50090000      -1.88960000
H        2.20020000      -0.84870000       1.11220000
H        2.87950000      -2.35190000       0.49210000
H        3.73140000      -0.82540000       0.24120000
H       -0.01890000      -1.03010000       0.89800000
H       -1.39120000      -1.12310000      -0.20590000
H       -0.45350000      -2.57310000       0.16350000
H       -0.02240000      -2.99300000      -2.35980000
H       -0.98920000      -1.56370000      -2.74910000
H        0.67450000      -1.69280000      -3.33720000
