20
Properties=species:S:1:pos:R:3 gdb_103211=T pbc="F F F"
C       -0.16330000       1.59510000      -0.08000000
C       -0.10780000       0.07490000      -0.14020000
C       -1.50640000      -0.51930000       0.02780000
O       -1.98880000      -0.28230000       1.34140000
C        0.89280000      -0.60140000      -1.08880000
C        2.05550000      -0.25130000      -0.10680000
C        2.57380000      -1.68600000      -0.02560000
C        1.05090000      -1.79110000      -0.09220000
N        0.87720000      -0.56970000       0.86260000
H        0.82660000       2.05400000      -0.03300000
H       -0.67190000       1.98570000      -0.96880000
H       -0.73500000       1.90860000       0.79740000
H       -2.21190000      -0.03680000      -0.65790000
H       -1.50980000      -1.59380000      -0.20670000
H       -1.26920000      -0.52660000       1.93770000
H        0.92730000      -0.63130000      -2.18380000
H        2.60840000       0.68350000      -0.02240000
H        3.13300000      -2.05840000      -0.88740000
H        3.03800000      -1.97910000       0.91960000
H        0.42280000      -2.67540000       0.01030000
