19
Properties=species:S:1:pos:R:3 gdb_69330=T pbc="F F F"
C       -0.07830000       1.56150000       0.07260000
C        0.02620000       0.03150000       0.02380000
C        1.12070000      -0.58040000      -0.94810000
C        1.77930000      -1.26230000       0.25690000
O        2.24860000      -2.56310000       0.24320000
C        2.20530000      -0.25420000       1.28240000
C        0.75060000      -0.67240000       1.20270000
C       -1.28590000      -0.55670000      -0.21050000
C       -2.37550000      -1.03130000      -0.39490000
H        0.89920000       2.02020000       0.24550000
H       -0.47460000       1.94820000      -0.87100000
H       -0.75180000       1.87610000       0.87530000
H        0.68440000      -1.29760000      -1.64350000
H        1.72880000       0.14530000      -1.49930000
H        3.18420000      -2.54590000       0.01320000
H        2.72710000      -0.68250000       2.13270000
H        2.53390000       0.74490000       1.00750000
H        0.24160000      -1.12790000       2.04250000
H       -3.33460000      -1.45560000      -0.56060000
