17
Properties=species:S:1:pos:R:3 gdb_22099=T pbc="F F F"
C       -0.23320000       1.58570000      -0.06300000
C       -0.03370000       0.09700000      -0.02760000
C       -0.02290000      -0.62410000       1.30060000
C        1.32520000      -0.48090000       2.04810000
O        1.66500000       0.85430000       2.37680000
C        1.32620000      -1.33310000       3.25550000
N        1.29670000      -1.97490000       4.21600000
N        0.14090000      -0.66410000      -1.04100000
O        0.15570000       0.03250000      -2.25370000
H        0.61980000       2.08590000       0.40600000
H       -0.34800000       1.94480000      -1.08420000
H       -1.12270000       1.85810000       0.51670000
H       -0.82440000      -0.24880000       1.94920000
H       -0.20210000      -1.68830000       1.12680000
H        2.12500000      -0.82910000       1.38620000
H        1.04240000       1.17200000       3.04140000
H        0.25270000      -0.68010000      -2.89420000
