23
Properties=species:S:1:pos:R:3 gdb_114042=T pbc="F F F"
C       -0.42640000       1.29480000      -0.35340000
C        0.86690000       0.63740000       0.14140000
C        1.51610000      -0.20610000      -0.94350000
O        2.79870000      -0.79860000      -0.58140000
C        2.40620000      -2.05100000      -1.17590000
C        3.41500000      -2.73360000      -2.04160000
C        1.30240000      -2.67530000      -0.37970000
C        1.20020000      -2.61860000       1.13010000
C        0.97820000      -1.56730000      -1.38100000
H       -0.24120000       1.93570000      -1.22260000
H       -1.16610000       0.54220000      -0.64700000
H       -0.87570000       1.91540000       0.42710000
H        1.58700000       1.40810000       0.44460000
H        0.66250000       0.03020000       1.02630000
H        1.67130000       0.42330000      -1.83340000
H        4.28410000      -3.04150000      -1.44840000
H        2.98520000      -3.62940000      -2.49920000
H        3.76870000      -2.06860000      -2.83600000
H        1.00500000      -3.63340000      -0.80520000
H        1.79340000      -1.79290000       1.52680000
H        0.16490000      -2.50110000       1.46770000
H        1.58720000      -3.54550000       1.56760000
H        0.30630000      -1.72900000      -2.21440000
