21
Properties=species:S:1:pos:R:3 gdb_92792=T pbc="F F F"
C       -0.01310000       1.55760000       0.02280000
C        0.08170000       0.03330000       0.00780000
C        0.86130000      -0.55360000      -1.20190000
C        1.50830000      -1.79040000      -0.63220000
C        1.46410000      -1.81870000       0.70230000
C        2.07690000      -2.85380000       1.60390000
C        3.33660000      -2.31430000       2.26850000
O        3.50030000      -2.20650000       3.45490000
C        0.77440000      -0.58520000       1.25110000
H        0.98340000       2.01250000       0.06680000
H       -0.51100000       1.93400000      -0.87740000
H       -0.58010000       1.91440000       0.88920000
H       -0.93440000      -0.37810000      -0.03370000
H        0.20900000      -0.76090000      -2.05810000
H        1.62610000       0.15070000      -1.56380000
H        1.98060000      -2.54770000      -1.25020000
H        1.38860000      -3.17170000       2.39390000
H        2.36940000      -3.73150000       1.01280000
H        4.12260000      -2.00030000       1.54300000
H        1.51080000       0.10710000       1.68760000
H        0.06620000      -0.81690000       2.05560000
