17
Properties=species:S:1:pos:R:3 gdb_67156=T pbc="F F F"
O       -0.07380000       1.42500000       0.04230000
C        0.02170000       0.05340000       0.01000000
C       -1.23860000      -0.87240000       0.01320000
C       -0.74230000      -1.52150000      -1.30300000
C        0.65280000      -0.84310000      -1.14290000
C        1.49120000      -1.52170000      -0.05250000
O        2.49030000      -2.18390000      -0.08600000
C        0.69500000      -0.89280000       1.09750000
C       -0.69370000      -1.57880000       1.27980000
H        0.81320000       1.80330000       0.03460000
H       -2.26230000      -0.50130000       0.04070000
H       -0.76670000      -2.61270000      -1.37540000
H       -1.26100000      -1.09800000      -2.16680000
H        1.16610000      -0.48810000      -2.03700000
H        1.24170000      -0.57740000       1.98660000
H       -1.17930000      -1.19440000       2.18030000
H       -0.71640000      -2.67220000       1.30460000
