15
Properties=species:S:1:pos:R:3 gdb_22717=T pbc="F F F"
O       -0.08040000       1.27500000      -0.01330000
N        0.01170000      -0.11950000       0.07940000
C       -1.12440000      -0.66060000      -0.05170000
C       -2.57860000      -0.19870000      -0.14370000
C       -2.96900000      -1.67410000       0.03840000
N       -2.35610000      -2.42750000      -1.07640000
C       -1.49550000      -2.10190000       0.07060000
C       -4.01300000      -2.24100000       0.89580000
O       -4.82060000      -1.59060000       1.51410000
H        0.83420000       1.55080000       0.11270000
H       -2.86660000       0.42830000       0.70300000
H       -2.89730000       0.26230000      -1.07990000
H       -2.62510000      -3.41000000      -0.98860000
H       -1.01560000      -2.87400000       0.65870000
H       -3.99300000      -3.35610000       0.94710000
