14
Properties=species:S:1:pos:R:3 gdb_14221=T pbc="F F F"
C       -0.07250000       1.41490000       0.02590000
C        0.02350000      -0.07240000       0.00230000
O       -1.15510000      -0.83890000      -0.30000000
C       -0.43560000      -2.00370000       0.18850000
C        0.60220000      -1.08110000       0.91930000
C        1.23780000      -0.86650000      -0.50540000
C        0.67480000      -2.20410000      -0.87870000
O        1.05270000      -3.13140000      -1.53340000
H        0.87840000       1.85380000       0.34040000
H       -0.31660000       1.79700000      -0.97000000
H       -0.85310000       1.73400000       0.72250000
H       -1.05790000      -2.79890000       0.58830000
H        1.08760000      -1.08820000       1.88350000
H        2.18990000      -0.41770000      -0.75120000
