18
Properties=species:S:1:pos:R:3 gdb_117855=T pbc="F F F"
C       -0.46740000       1.60600000       0.27680000
C       -0.10570000       0.13290000       0.28540000
O       -1.23560000      -0.58750000      -0.23690000
C       -1.13970000      -1.92660000      -0.28130000
N       -2.33400000      -2.47840000      -0.68700000
N       -0.06400000      -2.52420000       0.07020000
C       -0.05980000      -3.97360000       0.09690000
C       -0.28150000      -4.60800000      -1.21780000
N       -0.50820000      -5.05880000      -2.25880000
H        0.36950000       2.19320000       0.66590000
H       -0.68640000       1.94960000      -0.73820000
H       -1.34370000       1.79810000       0.90240000
H        0.76930000      -0.07980000      -0.33620000
H        0.11410000      -0.23200000       1.29340000
H       -2.98380000      -1.81250000      -1.07800000
H       -2.27460000      -3.34190000      -1.20760000
H        0.91170000      -4.31360000       0.46990000
H       -0.82150000      -4.38140000       0.78060000
