16
Properties=species:S:1:pos:R:3 gdb_23580=T pbc="F F F"
O       -0.21060000       1.33820000       0.03790000
N       -0.04500000      -0.06490000       0.15190000
C       -1.16370000      -0.65370000       0.08360000
C       -1.51210000      -2.09390000       0.01940000
C       -2.92640000      -2.21360000       0.63280000
C       -2.77100000      -1.74520000      -0.77860000
C       -2.61420000      -0.28460000      -0.16990000
C       -3.32760000      -0.82560000       1.11860000
O       -4.73160000      -0.71730000       1.08560000
H        0.70030000       1.64630000       0.08150000
H       -0.86190000      -2.95140000      -0.08010000
H       -3.29130000      -3.16770000       0.99120000
H       -3.11000000      -2.11430000      -1.73390000
H       -2.89950000       0.66080000      -0.62100000
H       -2.91790000      -0.47480000       2.07690000
H       -4.96380000       0.19500000       1.28700000
