19
Properties=species:S:1:pos:R:3 gdb_10737=T pbc="F F F"
C        0.11570000       1.47300000       0.01420000
C       -0.01500000      -0.06800000       0.04360000
C        0.57770000      -0.61270000       1.36110000
C       -1.44940000      -0.41620000       0.00900000
N       -2.57330000      -0.68540000      -0.02080000
C        0.62920000      -0.64980000      -1.22420000
C        2.09870000      -0.97300000      -1.32450000
C        1.07310000      -2.08070000      -1.35990000
H        1.17500000       1.74520000       0.02390000
H       -0.33920000       1.88850000      -0.88890000
H       -0.37120000       1.92610000       0.88190000
H        0.04310000      -0.18610000       2.21360000
H        0.49630000      -1.69980000       1.42720000
H        1.63000000      -0.33030000       1.44810000
H        0.19180000      -0.22150000      -2.12200000
H        2.61250000      -0.70650000      -2.24130000
H        2.71500000      -0.89220000      -0.43650000
H        1.00890000      -2.73050000      -0.49480000
H        0.87710000      -2.58240000      -2.30060000
