13
Properties=species:S:1:pos:R:3 gdb_131643=T pbc="F F F"
O        0.32620000       1.00930000       0.72880000
C       -0.02690000       0.07020000      -0.27110000
C       -1.39260000      -0.51670000      -0.06660000
C       -2.13700000      -0.72460000       1.06440000
O       -3.29510000      -1.28980000       0.69540000
N       -3.25360000      -1.43300000      -0.69990000
N       -2.15080000      -0.97950000      -1.11820000
C       -1.87900000      -0.45060000       2.49310000
O       -2.65310000      -0.72670000       3.37550000
H       -0.20580000       1.80190000       0.59880000
H        0.02280000       0.49080000      -1.28390000
H        0.72980000      -0.72070000      -0.21820000
H       -0.90300000       0.03540000       2.66980000
