21
Properties=species:S:1:pos:R:3 gdb_77727=T pbc="F F F"
O        0.13600000       1.19750000       0.14040000
C       -0.08400000      -0.18400000       0.15400000
C       -0.57040000      -0.82160000       1.41430000
C       -1.54110000       0.11120000       2.16480000
C       -2.45580000       0.16000000       0.89740000
C       -1.47190000      -0.77160000       0.16050000
C       -1.67610000      -2.18740000      -0.34050000
C       -0.54750000      -3.00920000       0.36170000
C       -0.21420000      -2.26700000       1.69530000
H       -0.11810000       1.52700000      -0.72820000
H        0.66070000      -0.75550000      -0.40070000
H       -2.02150000      -0.38750000       3.00990000
H       -1.12290000       1.06170000       2.50320000
H       -3.42770000      -0.31240000       1.05950000
H       -2.61780000       1.14460000       0.44940000
H       -2.66180000      -2.54220000      -0.01570000
H       -1.63830000      -2.30720000      -1.42970000
H       -0.83820000      -4.05040000       0.52950000
H        0.34110000      -3.03810000      -0.27750000
H        0.82450000      -2.43770000       2.00010000
H       -0.85130000      -2.63980000       2.50620000
