17
Properties=species:S:1:pos:R:3 gdb_67270=T pbc="F F F"
O       -0.13650000       1.37820000       0.08830000
C       -0.07160000       0.00530000      -0.01670000
C       -1.33090000      -0.86590000       0.20510000
C       -1.11630000      -1.63290000       1.52420000
C        0.18890000      -2.12580000       0.84270000
C       -0.49090000      -1.93980000      -0.57120000
C        0.46250000      -0.86460000      -1.20080000
O        1.75620000      -1.02660000      -0.59350000
C        1.06230000      -0.86960000       0.67150000
H        0.73980000       1.73810000      -0.09390000
H       -2.28950000      -0.47370000      -0.12970000
H       -1.02540000      -1.06000000       2.45370000
H       -1.84380000      -2.43750000       1.66130000
H        0.69340000      -3.04520000       1.13830000
H       -0.90980000      -2.78780000      -1.10520000
H        0.46960000      -0.64800000      -2.26840000
H        1.69780000      -0.52800000       1.48890000
