17
Properties=species:S:1:pos:R:3 gdb_46964=T pbc="F F F"
O        0.12030000       0.01350000       0.25470000
C       -0.00110000       1.19100000       0.02400000
C       -1.28350000       2.03270000      -0.00930000
C       -0.79260000       3.46590000       0.28970000
C        0.61130000       3.48320000      -0.34550000
C        1.80020000       4.21680000       0.33360000
N        2.83540000       3.18880000       0.58640000
C        2.33900000       2.06050000       0.27150000
N        1.04000000       2.07810000      -0.24570000
H       -1.72530000       1.96380000      -1.01100000
H       -2.01070000       1.63610000       0.70070000
H       -1.44790000       4.24240000      -0.11030000
H       -0.71180000       3.61620000       1.37230000
H        0.53810000       3.76390000      -1.40360000
H        2.21050000       5.00610000      -0.30110000
H        1.52540000       4.68010000       1.29000000
H        2.84020000       1.10750000       0.39460000
