16
Properties=species:S:1:pos:R:3 gdb_102264=T pbc="F F F"
N       -0.08530000       1.33720000      -0.16190000
C        0.05160000      -0.02560000       0.01320000
O        1.12570000      -0.58320000       0.12770000
N       -1.15180000      -0.71270000       0.03820000
C       -1.14770000      -2.15780000       0.00480000
C       -2.43640000      -2.68840000       0.66280000
O       -3.58680000      -2.18140000       0.01350000
C       -1.07260000      -2.68750000      -1.37660000
N       -1.09810000      -3.10620000      -2.45380000
H        0.75760000       1.85260000       0.03830000
H       -0.93830000       1.78360000       0.13730000
H       -1.99030000      -0.28090000      -0.32110000
H       -0.26310000      -2.49700000       0.55110000
H       -2.41920000      -3.78570000       0.68080000
H       -2.46900000      -2.31860000       1.69090000
H       -3.67170000      -2.62930000      -0.83660000
