21
Properties=species:S:1:pos:R:3 gdb_67463=T pbc="F F F"
C       -0.03930000       1.51960000       0.02470000
C        0.01110000       0.02050000      -0.01490000
C        0.52040000      -0.95500000      -1.08890000
C        1.32580000      -1.73430000      -0.05260000
C        0.63980000      -0.88030000       1.07110000
O       -0.27980000      -1.52520000       1.93060000
C       -1.12520000      -2.44900000       1.26010000
C       -1.81340000      -1.86410000       0.01220000
C       -0.95560000      -0.86070000      -0.74690000
H        0.94770000       1.95210000       0.22800000
H       -0.39100000       1.92760000      -0.92910000
H       -0.72170000       1.87340000       0.80700000
H        0.86190000      -0.71800000      -2.09070000
H        1.22270000      -2.82180000      -0.01890000
H        2.39140000      -1.49560000      -0.10600000
H        1.34730000      -0.36800000       1.72610000
H       -0.55550000      -3.34880000       0.98990000
H       -1.87360000      -2.75320000       1.99720000
H       -2.13230000      -2.68870000      -0.63720000
H       -2.72530000      -1.33760000       0.32060000
H       -1.50710000      -0.33140000      -1.52230000
