17
Properties=species:S:1:pos:R:3 gdb_5922=T pbc="F F F"
C        0.00310000       1.56980000       0.01070000
C        0.01090000       0.03050000       0.05310000
C        0.78290000      -0.51200000       1.27020000
O       -1.34510000      -0.49240000       0.02860000
C       -2.18270000      -0.19370000       1.03950000
N       -3.36290000      -0.64460000       1.02220000
C        0.62200000      -0.48480000      -1.17700000
C        1.16500000      -0.88280000      -2.17080000
H        1.02440000       1.94060000      -0.10550000
H       -0.59330000       1.91590000      -0.83610000
H       -0.40890000       1.98960000       0.93250000
H        0.37900000      -0.11430000       2.20520000
H        0.72460000      -1.60230000       1.29230000
H        1.83330000      -0.21900000       1.20110000
H       -1.75270000       0.43970000       1.82310000
H       -3.86320000      -0.33080000       1.85140000
H        1.63140000      -1.24320000      -3.05450000
