14
Properties=species:S:1:pos:R:3 gdb_124143=T pbc="F F F"
C       -0.03440000       1.48110000      -0.00550000
C        0.00230000       0.02760000      -0.00520000
C        0.03150000      -1.17790000      -0.00470000
C        0.04130000      -2.58740000      -0.00260000
C        1.09100000      -3.45850000      -0.07010000
O        0.67440000      -4.72750000      -0.04010000
N       -0.72260000      -4.74570000       0.05200000
C       -1.07690000      -3.48620000       0.07290000
O       -2.35490000      -3.10130000       0.15640000
H        0.97730000       1.90090000       0.01170000
H       -0.53960000       1.86630000      -0.89830000
H       -0.56870000       1.86450000       0.87090000
H        2.15650000      -3.30530000      -0.14060000
H       -2.90130000      -3.89810000       0.19400000
