19
Properties=species:S:1:pos:R:3 gdb_91279=T pbc="F F F"
C       -0.04420000       1.57550000       0.11050000
N       -0.03470000       0.13140000       0.11360000
C       -1.28020000      -0.59250000       0.42300000
C       -0.45230000      -1.62250000       1.23340000
N        0.09010000      -2.74090000       0.50780000
C        1.40670000      -2.64310000       0.12270000
O        2.01180000      -3.46750000      -0.52320000
C        1.95050000      -1.32210000       0.68960000
C        0.70970000      -0.58200000       1.17450000
H        0.96970000       1.95450000      -0.05570000
H       -0.67340000       1.94010000      -0.70820000
H       -0.42400000       2.01350000       1.05390000
H       -1.96600000      -0.03150000       1.07950000
H       -1.83460000      -0.95520000      -0.44970000
H       -0.85720000      -1.90870000       2.20690000
H       -0.45220000      -3.54360000       0.22990000
H        2.65550000      -1.54860000       1.49660000
H        2.48890000      -0.77920000      -0.08990000
H        0.85190000       0.00280000       2.09250000
