18
Properties=species:S:1:pos:R:3 gdb_17290=T pbc="F F F"
C       -0.00170000       1.53530000      -0.03040000
C       -0.00380000       0.02510000      -0.00270000
C       -1.34720000      -0.73590000       0.08380000
O       -0.86590000      -1.53890000       1.19350000
C        0.38510000      -0.80710000       1.23680000
C        1.57910000      -1.42980000       0.48370000
C        1.10140000      -2.16270000      -0.73480000
C        1.15260000      -0.66220000      -0.78110000
H        0.99990000       1.92980000       0.17400000
H       -0.30790000       1.91190000      -1.01400000
H       -0.68760000       1.94920000       0.71610000
H       -2.19560000      -0.10960000       0.38990000
H       -1.64270000      -1.34700000      -0.77710000
H        0.59160000      -0.37410000       2.21930000
H        2.56800000      -1.57920000       0.90030000
H        1.88180000      -2.65740000      -1.30430000
H        0.16250000      -2.70380000      -0.70180000
H        1.77610000      -0.14010000      -1.49810000
