14
Properties=species:S:1:pos:R:3 gdb_2278=T pbc="F F F"
N        0.03740000       1.30900000       0.06680000
C        0.02490000       0.05050000       0.00730000
O       -1.11940000      -0.62420000       0.24910000
C       -1.10120000      -2.03220000       0.17500000
C       -1.74850000      -2.77290000       1.36100000
O       -2.60990000      -3.50580000       0.46530000
C       -2.23310000      -2.67320000      -0.65100000
H        0.97040000       1.65850000      -0.14050000
H        0.87440000      -0.60550000      -0.22980000
H       -0.10110000      -2.39430000      -0.08380000
H       -1.10960000      -3.43330000       1.95690000
H       -2.30560000      -2.09700000       2.02200000
H       -3.01430000      -1.95120000      -0.92050000
H       -1.94960000      -3.26050000      -1.53080000
