14
Properties=species:S:1:pos:R:3 gdb_5551=T pbc="F F F"
C        0.46760000       0.83440000       0.33470000
O       -0.55950000       0.59990000      -0.63100000
C       -1.45190000      -0.35550000      -0.28720000
C       -1.37790000      -1.61590000       0.25270000
O       -0.25560000      -2.26610000       0.66020000
N       -2.61830000      -2.17570000       0.35170000
C       -3.45540000      -1.28040000      -0.13320000
N       -2.80010000      -0.15540000      -0.52720000
H        1.10970000       1.61020000      -0.08600000
H        0.03840000       1.18200000       1.28250000
H        1.05160000      -0.07260000       0.51730000
H       -0.55470000      -3.10540000       1.02990000
H       -4.52330000      -1.39710000      -0.22800000
H       -3.18930000       0.67680000      -0.93740000
