18
Properties=species:S:1:pos:R:3 gdb_125195=T pbc="F F F"
C       -0.05720000       1.52470000       0.10350000
C        0.01290000       0.04390000      -0.06410000
C        0.00250000      -0.77990000      -1.16750000
N       -0.00780000      -0.70190000      -2.58150000
C        0.30110000      -2.10020000      -3.02020000
C        0.07430000      -3.07310000      -1.80980000
C        0.09570000      -2.09090000      -0.67580000
N        0.15740000      -2.14070000       0.64490000
N        0.09050000      -0.83020000       0.99570000
H        0.64790000       1.87880000       0.86390000
H        0.19730000       2.01360000      -0.84020000
H       -1.05710000       1.86830000       0.39710000
H       -0.90790000      -0.40170000      -2.94110000
H       -0.29600000      -2.36270000      -3.89680000
H        1.35530000      -2.13560000      -3.31600000
H       -0.88990000      -3.59340000      -1.87370000
H        0.85430000      -3.83720000      -1.76070000
H        0.14810000      -0.58940000       1.97040000
