15
Properties=species:S:1:pos:R:3 gdb_44627=T pbc="F F F"
O       -0.00730000       0.05250000      -0.02320000
C        0.05130000       1.24350000      -0.00710000
O       -1.05230000       2.07300000       0.00430000
C       -0.45730000       3.37860000       0.04550000
C        0.73660000       3.35030000      -0.95860000
C        1.56990000       4.55140000      -0.53570000
O        1.50330000       4.43310000       0.90530000
C        0.70600000       3.28580000       1.07360000
C        1.20760000       2.21120000       0.02740000
H       -1.22000000       4.15390000       0.06110000
H        0.58630000       3.15870000      -2.02020000
H        2.61320000       4.50550000      -0.86590000
H        1.13700000       5.50760000      -0.85080000
H        0.55370000       3.05650000       2.12680000
H        2.21430000       1.80290000       0.03440000
