15
Properties=species:S:1:pos:R:3 gdb_28707=T pbc="F F F"
C       -0.07990000       1.63610000      -0.19140000
C       -0.01200000       0.15340000      -0.14490000
C       -0.91260000      -0.82460000       0.13710000
C       -0.23180000      -2.08180000      -0.01130000
C        1.03450000      -1.75460000      -0.36790000
O        2.13420000      -2.48650000      -0.67220000
C        2.65320000      -3.28380000       0.31970000
O        3.55980000      -4.02290000       0.11730000
O        1.20060000      -0.41570000      -0.45200000
H        0.15020000       2.01810000      -1.19240000
H       -1.08580000       1.96550000       0.07780000
H        0.63000000       2.09500000       0.50590000
H       -1.94560000      -0.67570000       0.41030000
H       -0.63160000      -3.07600000       0.10320000
H        2.11780000      -3.14250000       1.27460000
