21
Properties=species:S:1:pos:R:3 gdb_87214=T pbc="F F F"
C       -0.08920000      -0.52870000      -2.34250000
C       -0.36340000      -1.63470000      -1.35580000
O        0.73120000      -2.48590000      -0.99050000
C        0.11470000      -1.68850000       0.04070000
C        0.98570000      -0.60260000       0.63590000
C       -0.68370000      -2.51180000       1.04300000
C        0.19910000      -3.36780000       1.92490000
C        0.53940000      -3.00390000       3.30730000
O       -0.44180000      -4.00360000       3.03250000
H        0.83440000       0.00690000      -2.11780000
H        0.00110000      -0.94450000      -3.35160000
H       -0.91790000       0.18780000      -2.35060000
H       -1.28450000      -2.18560000      -1.56350000
H        1.57090000      -0.09010000      -0.12810000
H        0.37190000       0.13760000       1.16110000
H        1.68470000      -1.03000000       1.36140000
H       -1.29760000      -1.85550000       1.67100000
H       -1.36660000      -3.17240000       0.49750000
H        0.89340000      -4.01100000       1.38310000
H        1.46460000      -3.36490000       3.75480000
H        0.15410000      -2.07540000       3.72840000
