19
Properties=species:S:1:pos:R:3 gdb_117503=T pbc="F F F"
C       -0.04630000       1.53300000      -0.09670000
C       -0.14510000       0.01910000      -0.16160000
O        0.80290000      -0.44060000      -1.11520000
C        0.84380000      -1.85560000      -1.24280000
C       -0.38790000      -2.39870000      -1.84760000
C       -1.40450000      -2.83100000      -2.31980000
C        2.02390000      -2.22100000      -2.02770000
C        2.99520000      -2.54390000      -2.65860000
C        4.16850000      -2.92370000      -3.43030000
H        0.96050000       1.84170000       0.19820000
H       -0.26780000       1.97280000      -1.07300000
H       -0.76010000       1.92780000       0.63250000
H        0.06940000      -0.42920000       0.82330000
H       -1.15860000      -0.29460000      -0.45070000
H        0.94210000      -2.30190000      -0.23600000
H       -2.29620000      -3.21760000      -2.74810000
H        3.89990000      -3.59090000      -4.25640000
H        4.65580000      -2.04180000      -3.86020000
H        4.90600000      -3.44130000      -2.80750000
