17
Properties=species:S:1:pos:R:3 gdb_82626=T pbc="F F F"
C       -0.10380000       1.55840000      -0.02790000
C        0.00040000       0.03810000      -0.01490000
C        1.02660000      -0.57520000      -0.99680000
O        2.28730000      -0.11090000      -0.51270000
C        2.17790000      -0.60110000       0.81210000
C        1.31250000      -1.84330000       0.70590000
O        1.00350000      -1.96260000      -0.67110000
C        0.70120000      -0.55280000       1.21240000
O        0.23760000      -0.43690000       2.50940000
H        0.88710000       2.01690000       0.03330000
H       -0.58920000       1.91640000      -0.94150000
H       -0.70340000       1.91190000       0.81820000
H       -0.97470000      -0.43440000      -0.16670000
H        0.93310000      -0.41620000      -2.06800000
H        3.03820000      -0.45870000       1.44930000
H        1.42310000      -2.76560000       1.25620000
H        0.41480000       0.45990000       2.81560000
