19
Properties=species:S:1:pos:R:3 gdb_40813=T pbc="F F F"
C        0.59640000       0.42600000      -1.00770000
N       -0.62090000       1.02960000      -0.43790000
C        0.37100000       0.42960000       0.45950000
C       -0.05640000      -0.81350000       1.21090000
C        1.12210000      -1.76040000       1.47930000
C        0.66920000      -2.85120000       2.44020000
O        0.10990000      -2.29080000       3.63850000
C       -0.56210000      -1.12410000       3.48540000
N       -0.71820000      -0.40780000       2.45570000
H        0.42350000      -0.47980000      -1.58420000
H        1.37260000       1.07130000      -1.41080000
H       -0.54280000       2.04250000      -0.42680000
H        0.98900000       1.10540000       1.04950000
H       -0.80190000      -1.32040000       0.58320000
H        1.49260000      -2.20930000       0.55240000
H        1.95160000      -1.20070000       1.92850000
H       -0.09190000      -3.48910000       1.97210000
H        1.49490000      -3.48750000       2.76740000
H       -0.99940000      -0.83010000       4.43840000
