14
Properties=species:S:1:pos:R:3 gdb_3425=T pbc="F F F"
O        0.00190000      -0.01700000      -0.11580000
C        0.02420000       1.18890000      -0.00380000
N       -1.07060000       1.99950000       0.19870000
C       -0.83040000       3.42360000       0.03650000
C        0.69410000       3.51610000       0.01200000
C        1.42520000       2.94880000       1.19110000
C        1.22460000       2.09900000      -0.04880000
H       -1.99310000       1.59690000       0.22970000
H       -1.25620000       3.80160000      -0.90350000
H       -1.26890000       4.00260000       0.85910000
H        1.14600000       4.31750000      -0.55860000
H        2.43100000       3.31090000       1.37210000
H        0.86790000       2.69200000       2.08660000
H        2.07380000       1.78700000      -0.64100000
