17
Properties=species:S:1:pos:R:3 gdb_51853=T pbc="F F F"
O       -0.30190000       0.11340000      -0.02160000
C       -0.16500000       1.29750000      -0.05280000
O        1.02790000       1.88930000       0.19880000
C        1.10720000       3.29570000       0.03270000
C        2.37070000       3.88390000       0.65510000
C        2.57280000       5.20050000      -0.12910000
C        2.18980000       4.85020000      -1.58020000
C        1.19150000       3.70230000      -1.45650000
O        0.57830000       3.15870000      -2.33570000
H       -0.97290000       2.02200000      -0.25720000
H        0.21220000       3.78230000       0.45210000
H        2.29030000       4.03130000       1.73360000
H        3.20120000       3.19340000       0.47050000
H        1.90220000       5.97380000       0.26210000
H        3.59130000       5.58250000      -0.03850000
H        1.77610000       5.67630000      -2.16380000
H        3.05100000       4.46660000      -2.14190000
