16
Properties=species:S:1:pos:R:3 gdb_126285=T pbc="F F F"
C        0.04620000       1.53780000       0.21940000
C       -0.02330000       0.04400000      -0.14200000
C       -1.42730000      -0.47930000      -0.15830000
C       -2.10570000      -0.91080000      -1.23060000
C       -3.47190000      -1.38250000      -1.10310000
N       -4.14740000      -1.79790000      -2.09450000
O       -3.98990000      -1.34890000       0.17180000
N       -3.19860000      -0.86970000       1.31000000
N       -2.05430000      -0.48700000       1.11230000
H        1.08700000       1.86970000       0.26410000
H       -0.47580000       2.14600000      -0.52540000
H       -0.41390000       1.72200000       1.19390000
H        0.43220000      -0.13440000      -1.12050000
H        0.55010000      -0.53170000       0.59480000
H       -1.67490000      -0.92960000      -2.22420000
H       -5.08280000      -2.08520000      -1.80160000
