17
Properties=species:S:1:pos:R:3 gdb_128799=T pbc="F F F"
C        0.03850000       1.30870000      -0.02610000
O       -0.01020000      -0.10030000      -0.05440000
C       -1.32300000      -0.60790000       0.03090000
C       -1.24170000      -2.09970000       0.03040000
N       -2.25750000      -2.94660000       0.01990000
C       -1.62950000      -4.16060000       0.03670000
N       -2.34110000      -5.34360000       0.09490000
N       -0.30300000      -4.11640000       0.04840000
N       -0.08110000      -2.76750000       0.05200000
H        1.08880000       1.59880000      -0.09730000
H       -0.51270000       1.74940000      -0.87060000
H       -0.38150000       1.70980000       0.90880000
H       -1.82370000      -0.26150000       0.95020000
H       -1.94130000      -0.26930000      -0.81610000
H       -3.25660000      -5.27090000      -0.32390000
H       -1.82080000      -6.14240000      -0.23760000
H        0.84970000      -2.38730000       0.05100000
