19
Properties=species:S:1:pos:R:3 gdb_91675=T pbc="F F F"
C       -0.09940000       1.53680000       0.02830000
C        0.05900000       0.01790000       0.04170000
C        1.04420000      -0.57250000      -1.03520000
N        2.01950000      -1.36010000      -0.22070000
C        1.05990000      -2.01940000       0.76070000
C        0.76860000      -0.58800000       1.27120000
C        2.26580000      -0.34750000       0.89290000
C        3.25000000      -0.79470000       1.86980000
N        4.02550000      -1.11190000       2.66590000
H        0.85920000       2.05500000       0.14080000
H       -0.53970000       1.87130000      -0.91680000
H       -0.75640000       1.87410000       0.83660000
H       -0.93260000      -0.43750000      -0.05620000
H        0.55740000      -1.23940000      -1.74980000
H        1.57350000       0.20450000      -1.59400000
H        0.24790000      -2.58400000       0.29530000
H        1.61140000      -2.64930000       1.45980000
H        0.37020000      -0.36510000       2.26170000
H        2.55430000       0.64440000       0.53520000
