20
Properties=species:S:1:pos:R:3 gdb_7141=T pbc="F F F"
C       -0.30220000       1.40450000      -0.00820000
C        0.47590000       0.09570000       0.11320000
N        0.82150000      -0.44870000      -1.19140000
C        0.81870000      -1.81400000      -1.40940000
O        0.37310000      -2.61730000      -0.60640000
N        1.36840000      -2.18320000      -2.62310000
C        1.25680000      -3.55240000      -3.10320000
C        2.51590000      -3.99590000      -3.84550000
H        0.28380000       2.17370000      -0.52480000
H       -1.22990000       1.25480000      -0.56800000
H       -0.55290000       1.79270000       0.98380000
H        1.37630000       0.25030000       0.72650000
H       -0.11860000      -0.67190000       0.61190000
H        1.44560000       0.10650000      -1.75670000
H        1.44970000      -1.46690000      -3.32850000
H        1.08260000      -4.16810000      -2.21900000
H        0.37690000      -3.67130000      -3.75310000
H        2.70590000      -3.36880000      -4.72440000
H        3.39240000      -3.93740000      -3.19370000
H        2.40970000      -5.02790000      -4.19410000
