17
Properties=species:S:1:pos:R:3 gdb_62376=T pbc="F F F"
N        0.00410000       1.45060000      -0.04610000
C        0.00310000      -0.00520000      -0.01810000
C        0.95880000      -0.56440000      -0.99240000
N        1.73550000      -0.88890000      -1.78640000
C        0.02050000      -0.61770000       1.44340000
C       -1.48700000      -0.19670000       1.52060000
C       -1.44670000      -0.64400000       0.01920000
C       -1.08190000      -2.12390000       0.17900000
C       -0.12250000      -2.10670000       1.10980000
H        0.93830000       1.79880000       0.15260000
H       -0.22870000       1.77790000      -0.98000000
H        0.76700000      -0.29900000       2.16990000
H       -2.11780000      -0.79170000       2.18150000
H       -1.63880000       0.87270000       1.65710000
H       -2.20080000      -0.35230000      -0.71070000
H       -1.50820000      -2.95070000      -0.36950000
H        0.45380000      -2.91550000       1.53410000
