21
Properties=species:S:1:pos:R:3 gdb_117509=T pbc="F F F"
C       -0.04380000       1.67280000       0.06360000
C        0.01570000       0.14320000       0.03830000
C       -1.37560000      -0.49570000      -0.03230000
C       -1.33770000      -2.03760000      -0.04700000
C       -2.65460000      -2.62540000       0.18840000
C       -3.74770000      -3.10020000       0.34980000
C       -0.79370000      -2.60080000      -1.39030000
C       -0.39060000      -4.06040000      -1.38220000
O       -0.70090000      -1.90300000      -2.36930000
H        0.95850000       2.10820000       0.12070000
H       -0.52530000       2.06250000      -0.83970000
H       -0.61460000       2.03500000       0.92600000
H        0.60910000      -0.18460000      -0.82180000
H        0.53560000      -0.21780000       0.93650000
H       -1.97510000      -0.17490000       0.82650000
H       -1.89550000      -0.15940000      -0.93460000
H       -0.66190000      -2.39200000       0.74600000
H       -4.71230000      -3.51600000       0.50610000
H       -1.17720000      -4.67570000      -0.93640000
H       -0.17530000      -4.39320000      -2.39810000
H        0.50680000      -4.18490000      -0.76400000
