12
Properties=species:S:1:pos:R:3 gdb_123529=T pbc="F F F"
C        0.07430000       1.28420000       0.00890000
N        1.30460000       1.79620000      -0.00040000
N        2.05360000       0.66920000      -0.01420000
C        3.39600000       0.53090000      -0.02830000
N        3.93940000      -0.65440000      -0.04040000
C        3.08390000      -1.71790000      -0.03800000
N        1.77020000      -1.69000000      -0.02480000
C        1.22590000      -0.46300000      -0.01250000
N       -0.03670000      -0.06640000       0.00230000
H       -0.78720000       1.93660000       0.02120000
H        3.98950000       1.43990000      -0.02900000
H        3.55710000      -2.69520000      -0.04830000
