20
Properties=species:S:1:pos:R:3 gdb_11575=T pbc="F F F"
O        0.04500000       1.38740000      -0.29030000
C        0.06640000       0.01540000       0.04340000
C       -1.33980000      -0.57720000       0.05080000
O       -1.85310000      -0.31580000      -1.25770000
C       -1.35970000      -2.07160000       0.38560000
C       -2.75930000      -2.65180000       0.42450000
C       -3.43810000      -3.11940000      -0.84780000
C       -2.98990000      -4.12030000       0.18770000
H       -0.52840000       1.45250000      -1.06390000
H        0.68930000      -0.56190000      -0.66070000
H        0.51430000      -0.07130000       1.03880000
H       -1.93570000      -0.02680000       0.79780000
H       -2.76640000      -0.61670000      -1.28450000
H       -0.75870000      -2.60840000      -0.35960000
H       -0.87250000      -2.22110000       1.35860000
H       -3.41180000      -2.18870000       1.16190000
H       -4.50270000      -2.94720000      -0.96600000
H       -2.87190000      -3.06370000      -1.77170000
H       -2.12730000      -4.73580000      -0.04530000
H       -3.74860000      -4.62460000       0.77550000
