8
Properties=species:S:1:pos:R:3 gdb_8720=T pbc="F F F"
O       -0.02880000      -0.04340000       0.00010000
C       -0.01750000       1.15660000       0.00560000
C        1.21140000       1.95430000       0.00160000
N        2.19840000       2.55580000      -0.00180000
C       -1.31250000       1.98830000       0.01760000
O       -1.30120000       3.18830000       0.02320000
C       -2.54140000       1.19060000       0.02160000
N       -3.52840000       0.58910000       0.02500000
