18
Properties=species:S:1:pos:R:3 gdb_70489=T pbc="F F F"
O        0.01430000       1.39840000       0.06170000
C        0.02200000       0.01710000       0.05080000
C       -0.31290000      -0.79300000      -1.17010000
C       -1.17200000      -0.93950000       0.06290000
C       -0.45220000      -1.85960000       1.05500000
C        0.71860000      -0.82160000       1.10810000
O        2.02410000      -1.26440000       0.75720000
C        2.88510000      -1.53270000       1.75670000
N        4.01720000      -2.03020000       1.50320000
H        0.69260000       1.71060000      -0.54740000
H       -0.75770000      -0.20050000      -1.96330000
H        0.32510000      -1.60670000      -1.50490000
H       -2.22660000      -0.69900000       0.06540000
H       -0.95410000      -1.98140000       2.01700000
H       -0.17020000      -2.84160000       0.66500000
H        0.74460000      -0.29220000       2.06710000
H        2.49830000      -1.26470000       2.75050000
H        4.54450000      -2.14600000       2.36610000
