19
Properties=species:S:1:pos:R:3 gdb_67988=T pbc="F F F"
C       -0.02300000       1.46060000       0.07650000
C        0.01920000      -0.04600000      -0.02000000
C        0.99780000      -0.68790000      -0.99340000
C        0.36330000      -2.04980000      -1.33440000
O        0.71470000      -2.80160000      -2.20540000
C       -0.77490000      -2.25190000      -0.34520000
C       -0.12640000      -2.31630000       1.08980000
C       -0.37980000      -0.81670000       1.23330000
C       -1.27740000      -0.82580000       0.00320000
H        0.91690000       1.86100000       0.47340000
H       -0.18830000       1.91470000      -0.90710000
H       -0.83030000       1.79310000       0.73750000
H        1.09480000      -0.09770000      -1.91180000
H        2.01050000      -0.83150000      -0.59940000
H       -1.46950000      -3.04420000      -0.61310000
H       -0.76460000      -2.89460000       1.76140000
H        0.90120000      -2.68920000       1.16810000
H       -0.52060000      -0.28960000       2.17030000
H       -2.26280000      -0.41110000      -0.16430000
