14
Properties=species:S:1:pos:R:3 gdb_43586=T pbc="F F F"
O        0.04790000      -0.00260000       0.05950000
C       -0.00780000       1.19380000      -0.03190000
C       -1.28070000       2.04120000      -0.17940000
C       -0.82240000       3.31270000      -0.94800000
C       -1.56890000       4.52140000      -0.60570000
N       -2.15940000       5.47760000      -0.33800000
C        0.67550000       3.42270000      -0.63010000
O        0.95470000       3.28590000       0.74950000
C        1.16680000       2.13820000      -0.10000000
H       -2.05960000       1.48260000      -0.69830000
H       -1.65150000       2.30020000       0.81600000
H       -0.92750000       3.14740000      -2.02710000
H        1.30430000       4.10930000      -1.18910000
H        2.18500000       1.77750000      -0.19620000
