15
Properties=species:S:1:pos:R:3 gdb_19239=T pbc="F F F"
N       -0.08440000       1.51090000       0.21310000
C       -0.05230000       0.09650000      -0.02370000
C       -1.38070000      -0.64580000      -0.03650000
C       -2.16660000      -0.38810000      -1.25790000
N       -1.07400000      -1.37570000      -1.34340000
C        0.20390000      -0.57820000      -1.44910000
C        0.30690000       0.32890000      -2.57950000
N        0.37420000       1.10660000      -3.43370000
H        0.84790000       1.91100000       0.21450000
H       -0.62330000       2.00220000      -0.49210000
H        0.64020000      -0.35710000       0.68880000
H       -1.79960000      -1.16970000       0.81570000
H       -3.14500000      -0.85350000      -1.31730000
H       -2.08390000       0.54630000      -1.80750000
H        1.05600000      -1.26060000      -1.44550000
