18
Properties=species:S:1:pos:R:3 gdb_5901=T pbc="F F F"
C        0.01240000       1.49490000       0.00690000
C       -0.00790000       0.03920000      -0.00810000
C       -0.03720000      -1.16530000      -0.03130000
C       -0.04720000      -2.63060000      -0.01380000
C       -1.47760000      -3.19120000      -0.07630000
C        0.82080000      -3.18120000      -1.17460000
C        0.64020000      -3.05030000       1.29760000
O        0.16160000      -3.78330000       2.11990000
H        0.90290000       1.88680000      -0.49650000
H       -0.86550000       1.90750000      -0.50230000
H        0.01240000       1.88130000       1.03190000
H       -1.95410000      -2.90410000      -1.01710000
H       -1.45720000      -4.28160000      -0.00460000
H       -2.07950000      -2.81020000       0.75110000
H        1.85440000      -2.83180000      -1.09560000
H        0.81770000      -4.27570000      -1.16540000
H        0.42040000      -2.83720000      -2.13170000
H        1.65470000      -2.61030000       1.42410000
