17
Properties=species:S:1:pos:R:3 gdb_85513=T pbc="F F F"
O       -0.25190000       1.55060000       0.50890000
C       -0.06080000       0.19410000       0.11960000
C        0.72970000      -0.58300000       1.17520000
C       -0.30700000      -0.94310000       2.24860000
O       -0.06820000      -1.33000000       3.36020000
C       -1.70470000      -0.73540000       1.64860000
C       -1.46390000      -0.47470000       0.15060000
C       -2.53090000       0.38130000      -0.50200000
O       -3.06150000       0.11450000      -1.54920000
H        0.60910000       1.97710000       0.56060000
H        0.38220000       0.13350000      -0.88190000
H        1.12360000      -1.51910000       0.75780000
H        1.57380000      -0.03250000       1.59940000
H       -2.35330000      -1.58750000       1.86240000
H       -2.14650000       0.14310000       2.13530000
H       -1.40890000      -1.41360000      -0.40830000
H       -2.80040000       1.29430000       0.06980000
