18
Properties=species:S:1:pos:R:3 gdb_24304=T pbc="F F F"
C       -0.10410000       1.53050000      -0.14150000
C        1.44580000       1.68100000       0.03320000
C        2.08150000       2.21690000       1.36370000
C        2.53800000       0.93600000       2.18210000
C        1.63250000      -0.14240000       1.60470000
C        1.32970000       0.22290000       0.33260000
N       -0.01270000      -0.01880000      -0.00360000
C       -0.50860000      -0.73650000       1.09680000
C        0.47210000      -0.87240000       2.05600000
H       -0.68650000       1.94230000       0.68350000
H       -0.52210000       1.81970000      -1.10600000
H        1.96080000       2.01870000      -0.86860000
H        2.91090000       2.90600000       1.17490000
H        1.33460000       2.77140000       1.94290000
H        3.60390000       0.73410000       2.02630000
H        2.39530000       1.07550000       3.25680000
H       -1.49930000      -1.17080000       1.07720000
H        0.36110000      -1.42770000       2.97870000
