18
Properties=species:S:1:pos:R:3 gdb_23183=T pbc="F F F"
O       -0.15870000       1.30730000       0.13860000
N        0.00740000      -0.09040000       0.21210000
C       -1.09960000      -0.68490000       0.01990000
C       -2.46450000      -0.08450000      -0.23500000
O       -3.30470000      -1.18140000      -0.56550000
C       -2.77210000      -2.34720000       0.05630000
C       -1.26040000      -2.16210000       0.02200000
C       -0.34650000      -3.03770000      -0.81510000
C       -0.28120000      -3.09030000       0.68590000
H        0.73490000       1.62900000       0.29750000
H       -2.81680000       0.44700000       0.66440000
H       -2.46120000       0.62920000      -1.06390000
H       -3.13110000      -2.43010000       1.09610000
H       -3.12390000      -3.21880000      -0.50230000
H       -0.79720000      -3.87140000      -1.34380000
H        0.45820000      -2.53660000      -1.34120000
H        0.56930000      -2.63040000       1.17670000
H       -0.68300000      -3.96540000       1.18700000
