19
Properties=species:S:1:pos:R:3 gdb_53317=T pbc="F F F"
C        0.06400000       1.51360000      -0.04790000
C        0.02280000       0.06120000       0.02810000
C       -0.01120000      -1.14090000       0.09620000
C       -0.04750000      -2.59110000       0.16420000
O        0.08530000      -3.13530000       1.51880000
C       -1.10620000      -3.92080000       1.33850000
C       -1.10300000      -5.30410000       1.89980000
C       -2.28430000      -3.01410000       1.15060000
C       -1.37900000      -3.32660000      -0.02510000
H        0.90470000       1.85830000      -0.65990000
H       -0.85580000       1.91600000      -0.48650000
H        0.17610000       1.95460000       0.94870000
H        0.74090000      -3.02300000      -0.46470000
H       -1.03250000      -5.27230000       2.99300000
H       -2.02700000      -5.82720000       1.63700000
H       -0.25260000      -5.88030000       1.52190000
H       -3.25220000      -3.50440000       1.10860000
H       -2.28340000      -2.02250000       1.59390000
H       -1.72110000      -3.77060000      -0.95010000
