19
Properties=species:S:1:pos:R:3 gdb_113331=T pbc="F F F"
C        0.41410000       1.41100000       0.27530000
N       -0.20330000       0.17690000      -0.20310000
C        0.51450000      -0.47820000      -1.26220000
C        1.87230000      -1.16290000      -1.05410000
C        0.64930000      -1.99340000      -1.32020000
C        0.06860000      -2.90100000      -0.25400000
O        0.78440000      -4.12000000      -0.14660000
C        0.33810000       0.18190000      -2.54240000
N        0.21660000       0.71000000      -3.56430000
H        1.44470000       1.28290000       0.64470000
H        0.43700000       2.14260000      -0.53840000
H       -0.19810000       1.82530000       1.08030000
H       -0.38770000      -0.45790000       0.56070000
H        2.62950000      -1.07160000      -1.82380000
H        2.24840000      -1.15040000      -0.03610000
H        0.56260000      -2.40280000      -2.32390000
H        0.14800000      -2.43920000       0.73560000
H       -1.00000000      -3.07640000      -0.44970000
H        0.67350000      -4.60560000      -0.97050000
