16
Properties=species:S:1:pos:R:3 gdb_48406=T pbc="F F F"
O       -0.14730000       0.02920000      -0.32690000
C       -0.02820000       1.15410000       0.08980000
C        1.26980000       1.93130000       0.03890000
C        2.54680000       1.21950000      -0.50380000
N        2.71680000       2.20360000      -1.62870000
C        1.50240000       2.07610000      -2.44870000
C        1.41730000       2.85430000      -1.19680000
C        1.54160000       2.67900000       1.32320000
O        0.85180000       2.61450000       2.30800000
H       -0.89060000       1.71440000       0.50380000
H        3.40050000       1.26860000       0.17460000
H        2.38110000       0.18780000      -0.82190000
H        1.55530000       2.64740000      -3.36990000
H        1.01090000       1.10990000      -2.52800000
H        1.28750000       3.93170000      -1.17330000
H        2.45890000       3.30960000       1.29410000
