16
Properties=species:S:1:pos:R:3 gdb_86692=T pbc="F F F"
C        0.12280000       1.59920000       0.01490000
C       -0.00020000       0.09650000       0.10260000
O        0.71830000      -0.59250000      -0.94870000
C        1.39550000      -1.45590000      -0.02950000
C        2.90720000      -1.42350000      -0.19810000
O        3.62350000      -2.32220000       0.15060000
C        0.80000000      -0.68670000       1.19810000
C        1.72730000       0.08670000       2.00630000
N        2.46070000       0.71600000       2.64080000
H        1.16740000       1.91710000       0.05960000
H       -0.30770000       1.94300000      -0.93020000
H       -0.42310000       2.07570000       0.83540000
H       -1.05460000      -0.20720000       0.10260000
H        1.05210000      -2.49560000      -0.08060000
H        3.28740000      -0.49180000      -0.66980000
H        0.18680000      -1.31080000       1.84960000
