16
Properties=species:S:1:pos:R:3 gdb_35205=T pbc="F F F"
N       -0.10530000      -1.13160000      -0.02230000
C       -0.04820000       0.02300000      -0.00590000
C        0.02360000       1.46650000      -0.02370000
O        0.63600000       2.09050000       1.11850000
C        1.33060000       2.15440000      -0.10930000
C        2.76060000       1.60900000      -0.26100000
C        3.13140000       2.93770000      -0.94740000
C        2.26280000       3.15940000      -2.14730000
C        1.69320000       3.45640000      -0.78040000
H       -0.86820000       1.96340000      -0.40040000
H        3.21780000       1.48600000       0.72330000
H        2.89750000       0.69350000      -0.84360000
H        4.05550000       3.47820000      -0.79200000
H        2.49300000       4.03770000      -2.74150000
H        1.89380000       2.31490000      -2.72460000
H        1.32820000       4.43240000      -0.48790000
