16
Properties=species:S:1:pos:R:3 gdb_46663=T pbc="F F F"
N       -0.12920000       1.24180000       0.11020000
C       -0.05850000      -0.00930000      -0.00060000
O        1.10970000      -0.75190000      -0.05460000
C        0.87740000      -2.18370000      -0.31710000
C       -0.54150000      -2.19790000      -0.86980000
C       -1.93140000      -2.60650000      -0.27930000
C       -1.57080000      -1.99180000       1.07700000
C       -1.13080000      -1.03650000      -0.07550000
O       -2.44160000      -1.25200000      -0.71180000
H        0.80420000       1.65780000       0.12670000
H        1.63910000      -2.49150000      -1.03520000
H        1.02350000      -2.73460000       0.61510000
H       -0.58230000      -2.03230000      -1.94760000
H       -2.57130000      -3.45200000      -0.53080000
H       -2.41550000      -1.62480000       1.65790000
H       -0.80720000      -2.47080000       1.69090000
