15
Properties=species:S:1:pos:R:3 gdb_131560=T pbc="F F F"
O        0.08390000       1.38320000      -0.19470000
C        0.04490000      -0.02300000       0.00650000
C        0.54020000      -0.46640000       1.42870000
O       -0.61220000      -0.83800000       2.24520000
C       -1.62370000      -1.00410000       1.35950000
C       -2.92080000      -1.45710000       1.34870000
N       -3.31060000      -1.29270000       0.03810000
N       -2.36530000      -0.77910000      -0.77140000
C       -1.33450000      -0.60700000       0.04980000
H       -0.70590000       1.75920000       0.20920000
H        0.69540000      -0.44290000      -0.76520000
H        1.19130000      -1.34460000       1.35810000
H        1.06840000       0.34600000       1.93090000
H       -3.58230000      -1.86070000       2.09570000
H       -4.20360000      -1.53370000      -0.35690000
