19
Properties=species:S:1:pos:R:3 gdb_43760=T pbc="F F F"
O       -0.01500000       0.05970000      -0.16870000
C        0.01590000       1.24070000       0.03710000
C       -1.10310000       2.27730000       0.33370000
C       -0.05970000       3.37700000       0.05060000
C        1.03030000       3.24200000       1.05180000
C        1.05820000       2.29210000      -0.14360000
C       -0.28490000       4.60390000      -0.75640000
C       -1.25660000       4.63840000      -1.91180000
C       -1.57910000       5.37890000      -0.63980000
H       -1.89090000       2.18710000      -0.41950000
H       -1.55720000       2.27620000       1.32910000
H        1.80850000       3.99870000       1.01660000
H        0.83290000       2.85800000       2.04960000
H        1.90660000       2.25890000      -0.81650000
H        0.61090000       5.20630000      -0.88190000
H       -0.97580000       5.21250000      -2.78760000
H       -1.82470000       3.74270000      -2.13670000
H       -2.35350000       4.96760000      -0.00130000
H       -1.53030000       6.46210000      -0.63880000
