16
Properties=species:S:1:pos:R:3 gdb_26869=T pbc="F F F"
C        0.00780000       1.54710000       0.03080000
C        0.00810000       0.04360000       0.00870000
C       -1.14850000      -0.69870000       0.03690000
N       -2.40600000      -0.19920000       0.11290000
O       -1.13900000      -2.02990000       0.02240000
C        0.08430000      -2.75300000      -0.00610000
N       -0.07700000      -4.00880000       0.00280000
N        1.25740000      -2.03990000      -0.04400000
C        1.18950000      -0.73680000      -0.03540000
H        1.03420000       1.92380000       0.00770000
H       -0.50950000       1.98380000      -0.83470000
H       -0.46500000       1.95390000       0.93400000
H       -2.55570000       0.77100000      -0.10300000
H       -3.16680000      -0.83720000      -0.05730000
H        0.84540000      -4.43980000      -0.02320000
H        2.14480000      -0.20880000      -0.06590000
