14
Properties=species:S:1:pos:R:3 gdb_128595=T pbc="F F F"
C        0.87720000       0.61540000       0.14310000
O       -0.51700000       0.89310000      -0.00730000
C       -1.32660000      -0.14700000       0.19020000
C       -1.15670000      -1.46580000       0.51350000
N       -2.40290000      -2.04480000       0.57520000
N       -3.31970000      -1.18530000       0.31550000
N       -2.68470000       0.02010000       0.06810000
C       -3.37290000       1.20710000      -0.25550000
O       -4.56130000       1.29050000      -0.34750000
H        1.19750000      -0.14250000      -0.57990000
H        1.39500000       1.55460000      -0.04830000
H        1.09200000       0.27040000       1.16020000
H       -0.25860000      -2.02760000       0.70140000
H       -2.66430000       2.03740000      -0.40950000
