16
Properties=species:S:1:pos:R:3 gdb_131139=T pbc="F F F"
O        0.04110000       1.36050000       0.04240000
C       -0.01730000      -0.04490000       0.07290000
C       -0.40170000      -0.62210000       1.41230000
C       -1.36460000      -0.70070000       0.25180000
C        1.03100000      -0.69380000      -0.74360000
C        1.20880000      -1.93520000      -1.31630000
N        2.41550000      -1.96310000      -1.94920000
N        2.99920000      -0.80800000      -1.80970000
N        2.16930000      -0.03910000      -1.07860000
H       -0.33130000       1.65380000      -0.79790000
H        0.10110000      -1.52630000       1.73390000
H       -0.61420000       0.09910000       2.19280000
H       -2.21970000      -0.03450000       0.26830000
H       -1.53970000      -1.65970000      -0.22280000
H        0.55500000      -2.79200000      -1.31310000
H        2.41430000       0.90970000      -0.84240000
