19
Properties=species:S:1:pos:R:3 gdb_89280=T pbc="F F F"
C       -0.25450000       1.58280000       0.19100000
C        0.03520000       0.11260000      -0.01510000
C       -1.15800000      -0.88250000      -0.01810000
C       -0.42740000      -1.77640000       1.03150000
O       -0.04560000      -3.07380000       0.63740000
C        0.77370000      -0.79250000       1.06600000
C        1.84260000      -1.09450000       0.01110000
O        2.89680000      -1.65720000       0.04690000
C        1.12710000      -0.25960000      -1.06630000
H        0.66760000       2.15440000       0.34510000
H       -0.76530000       2.00710000      -0.68180000
H       -0.89880000       1.74540000       1.06200000
H       -2.09080000      -0.45220000       0.35740000
H       -1.35680000      -1.37480000      -0.97440000
H       -0.95470000      -1.79370000       1.99450000
H       -0.83310000      -3.62690000       0.60750000
H        1.12210000      -0.46370000       2.04630000
H        0.79760000      -0.80610000      -1.95480000
H        1.74180000       0.58790000      -1.39030000
