22
Properties=species:S:1:pos:R:3 gdb_86446=T pbc="F F F"
C       -0.02630000       1.57990000       0.04450000
C        0.00970000       0.05210000      -0.02240000
C        0.75280000      -0.46550000      -1.25850000
C        0.74650000      -1.99050000      -1.29500000
C        1.59010000      -2.58050000      -2.41410000
O        1.25010000      -2.56680000      -0.06870000
C        0.86450000      -2.05160000       1.13790000
N        0.76830000      -2.78360000       2.16720000
C        0.67630000      -0.55540000       1.22030000
H        0.98790000       1.99440000       0.08440000
H       -0.52590000       2.00240000      -0.83350000
H       -0.56180000       1.92490000       0.93500000
H       -1.02570000      -0.31580000      -0.07200000
H        0.28960000      -0.09100000      -2.17890000
H        1.79020000      -0.10350000      -1.24760000
H       -0.29430000      -2.33220000      -1.40690000
H        2.63150000      -2.25770000      -2.31960000
H        1.56430000      -3.67250000      -2.37710000
H        1.21080000      -2.25580000      -3.38760000
H        0.96610000      -3.75530000       1.91600000
H        1.67490000      -0.10760000       1.33180000
H        0.12390000      -0.33650000       2.13590000
