23
Properties=species:S:1:pos:R:3 gdb_100274=T pbc="F F F"
C        0.24640000       1.57030000      -0.05890000
C        0.09490000       0.04910000       0.04820000
C       -1.36540000      -0.43960000       0.01390000
O       -1.92770000       0.04300000      -1.20730000
C       -1.47240000      -1.98120000       0.09960000
C       -0.78700000      -2.74110000      -1.03960000
C       -2.10600000       0.13440000       1.24850000
C       -3.33800000       0.98480000       1.01000000
O       -1.70110000      -0.11250000       2.36240000
H        1.30450000       1.84810000      -0.06950000
H       -0.21310000       1.94540000      -0.97670000
H       -0.21640000       2.08240000       0.79150000
H        0.63060000      -0.42610000      -0.77860000
H        0.53730000      -0.30810000       0.98280000
H       -2.75100000      -0.42760000      -1.37260000
H       -1.07860000      -2.29150000       1.07180000
H       -2.54210000      -2.24160000       0.11350000
H       -1.10420000      -2.35990000      -2.01480000
H        0.30190000      -2.65860000      -0.98720000
H       -1.03830000      -3.80480000      -0.99160000
H       -3.10490000       1.81750000       0.34070000
H       -4.12010000       0.39800000       0.51290000
H       -3.71600000       1.34860000       1.96600000
