17
Properties=species:S:1:pos:R:3 gdb_60705=T pbc="F F F"
C       -0.82120000       1.34690000      -0.71080000
C        0.05080000       0.26100000      -0.03410000
C       -0.86850000      -0.83740000       0.51220000
O       -1.11290000      -0.99430000       1.67680000
C        1.00920000      -0.32290000      -0.96480000
C        1.76600000      -0.84240000      -1.74620000
C        2.70980000      -1.43490000      -2.65460000
C        2.30680000      -2.46610000      -3.63210000
O        2.56590000      -1.13410000      -4.05320000
H       -0.18520000       2.13000000      -1.12940000
H       -1.41170000       0.91820000      -1.52570000
H       -1.50000000       1.79320000       0.02090000
H        0.57020000       0.69570000       0.82700000
H       -1.31910000      -1.47850000      -0.27830000
H        3.74410000      -1.44270000      -2.31260000
H        3.03600000      -3.21320000      -3.94300000
H        1.26460000      -2.77740000      -3.66850000
