21
Properties=species:S:1:pos:R:3 gdb_75136=T pbc="F F F"
C       -0.01670000       1.52440000       0.06370000
C       -0.00420000       0.03380000      -0.03460000
C       -0.02700000      -0.75340000      -1.11980000
C       -0.00290000      -2.22670000      -0.80750000
C        0.04210000      -2.30550000       0.74030000
C       -1.19640000      -2.99630000       1.33420000
C        1.32670000      -2.97010000       1.26210000
C        0.03920000      -0.82270000       1.17550000
O        0.06790000      -0.43640000       2.32410000
H        0.87110000       1.88240000       0.59630000
H       -0.04980000       1.99750000      -0.92090000
H       -0.87980000       1.86440000       0.64650000
H       -0.06000000      -0.38880000      -2.14260000
H       -0.88570000      -2.73020000      -1.22200000
H        0.86490000      -2.71220000      -1.27210000
H       -1.20380000      -4.06280000       1.08520000
H       -1.19750000      -2.89140000       2.42290000
H       -2.12190000      -2.55250000       0.95170000
H        2.21930000      -2.50740000       0.82750000
H        1.38780000      -2.86450000       2.34900000
H        1.34200000      -4.03630000       1.01240000
