18
Properties=species:S:1:pos:R:3 gdb_112068=T pbc="F F F"
O       -0.01940000       1.40070000      -0.33360000
C        0.03720000      -0.01690000      -0.36630000
C       -1.33720000      -0.52130000       0.09120000
C       -2.43970000      -0.08300000      -0.84680000
C       -2.93940000      -1.08820000      -1.56120000
C       -2.29040000      -2.41010000      -1.23470000
C       -1.50300000      -2.08040000       0.07230000
C       -0.26270000      -2.83690000       0.21270000
N        0.71940000      -3.43810000       0.31840000
H        0.84060000       1.74240000      -0.59440000
H        0.25190000      -0.38860000      -1.38060000
H        0.81790000      -0.40470000       0.30360000
H       -1.49040000      -0.13830000       1.10620000
H       -2.71810000       0.95920000      -0.93510000
H       -3.70240000      -0.99670000      -2.32580000
H       -3.00500000      -3.22320000      -1.07270000
H       -1.62090000      -2.73900000      -2.03930000
H       -2.13960000      -2.34760000       0.92200000
