15
Properties=species:S:1:pos:R:3 gdb_31472=T pbc="F F F"
N        0.22470000       1.21340000      -0.64300000
C       -0.21440000       0.34330000       0.43610000
C       -1.49950000      -0.39250000       0.17440000
N       -2.24760000      -0.34560000      -0.87740000
C       -3.31120000      -1.21700000      -0.59780000
C       -3.11800000      -1.74120000       0.64280000
O       -1.96480000      -1.22430000       1.14930000
C       -4.37090000      -1.46080000      -1.50080000
C       -5.27630000      -1.67320000      -2.26450000
H        0.31930000       0.66510000      -1.49380000
H       -0.51060000       1.88470000      -0.84820000
H        0.57140000      -0.39150000       0.65350000
H       -0.32980000       0.93280000       1.35470000
H       -3.66120000      -2.43620000       1.25860000
H       -6.07330000      -1.85790000      -2.94100000
