16
Properties=species:S:1:pos:R:3 gdb_32016=T pbc="F F F"
C        0.14510000       1.50770000       0.00700000
C       -0.06650000      -0.00450000       0.00370000
C       -1.50670000      -0.42710000       0.01400000
N       -2.48440000       0.41150000       0.02390000
C       -3.75100000      -0.12970000       0.03250000
C       -4.00650000      -1.45820000       0.03100000
C       -2.91160000      -2.39900000       0.02010000
O       -2.93290000      -3.59540000       0.01700000
O       -1.63860000      -1.76570000       0.01170000
H        1.21460000       1.73440000      -0.00110000
H       -0.31550000       1.97130000      -0.86830000
H       -0.30090000       1.96550000       0.89300000
H        0.40360000      -0.46960000      -0.87230000
H        0.41790000      -0.47550000       0.86870000
H       -4.56140000       0.59380000       0.04070000
H       -5.00960000      -1.86310000       0.03780000
