16
Properties=species:S:1:pos:R:3 gdb_37812=T pbc="F F F"
C       -0.12110000       1.60330000       0.07400000
C        1.39650000       1.30530000       0.01470000
C        1.26430000      -0.02560000       0.88600000
C        2.04060000      -0.86800000      -0.14860000
C        1.19000000       0.10670000      -0.98850000
N        0.61720000      -0.17710000      -2.29930000
C       -0.50250000      -0.71520000      -1.99210000
O       -0.92970000      -0.78930000      -0.67130000
C        0.00120000       0.07980000      -0.03380000
H       -0.51070000       2.01600000       1.00800000
H       -0.53970000       2.12020000      -0.79320000
H        2.23570000       1.99640000       0.07800000
H        1.29330000      -0.05970000       1.97490000
H        3.12550000      -0.74000000      -0.17680000
H        1.76880000      -1.92500000      -0.21450000
H       -1.20000000      -1.15680000      -2.69560000
