18
Properties=species:S:1:pos:R:3 gdb_18977=T pbc="F F F"
C       -0.06970000       1.61340000       0.01000000
C        1.44070000       1.26400000      -0.00540000
C        1.13620000       0.16750000       1.06110000
C        2.09540000      -1.01080000       1.15620000
O        2.09630000      -1.78880000      -0.02770000
C        2.07430000      -0.99810000      -1.20290000
C        1.11700000       0.17900000      -1.07800000
C       -0.01150000       0.06260000       0.00120000
H       -0.45380000       2.08220000       0.92080000
H       -0.47010000       2.09190000      -0.88860000
H        2.28530000       1.95650000      -0.00920000
H        0.84710000       0.54370000       2.04790000
H        3.11300000      -0.64860000       1.39040000
H        1.79700000      -1.69170000       1.96050000
H        3.08750000      -0.63330000      -1.45140000
H        1.76150000      -1.67040000      -2.00900000
H        0.81030000       0.56570000      -2.05540000
H       -0.85030000      -0.63470000       0.00500000
