18
Properties=species:S:1:pos:R:3 gdb_70042=T pbc="F F F"
C       -0.04500000       1.50600000       0.01420000
C        0.05630000      -0.00040000      -0.00400000
C       -0.81280000      -0.82160000       0.90690000
C        0.69390000      -0.79280000       1.13810000
C        1.43940000      -1.90040000       0.49960000
C        1.30310000      -1.88220000      -0.83820000
C        0.49470000      -0.67980000      -1.30730000
C        1.83170000      -2.84450000      -1.73730000
N        2.25390000      -3.60930000      -2.49930000
H        0.89600000       1.97110000      -0.30010000
H       -0.83240000       1.85710000      -0.66290000
H       -0.28380000       1.87540000       1.01630000
H       -1.42510000      -0.27950000       1.62050000
H       -1.24880000      -1.74760000       0.54550000
H        1.07620000      -0.32150000       2.03660000
H        1.99840000      -2.64680000       1.05110000
H       -0.35510000      -0.97740000      -1.93220000
H        1.11510000      -0.01240000      -1.91930000
