22
Properties=species:S:1:pos:R:3 gdb_107000=T pbc="F F F"
C       -0.97710000       1.27470000      -0.10090000
C       -0.26050000      -0.06330000      -0.16190000
C        0.67280000      -0.44210000      -1.36290000
C        0.89370000       0.51240000      -2.53130000
C        1.78050000      -0.61140000      -0.31590000
C        2.68960000      -1.81000000      -0.17540000
O        3.09490000      -1.97900000       1.16730000
C        1.96620000       0.61490000       0.47970000
N        0.84870000      -0.28590000       0.84540000
H       -0.31670000       2.12500000      -0.29070000
H       -1.78150000       1.30880000      -0.84320000
H       -1.42520000       1.41130000       0.88870000
H       -0.99270000      -0.85750000       0.00820000
H        0.37820000      -1.41990000      -1.75760000
H        1.21800000       1.50490000      -2.20570000
H        1.66090000       0.12150000      -3.20870000
H       -0.02570000       0.63830000      -3.11310000
H        2.16470000      -2.70420000      -0.55410000
H        3.60000000      -1.68900000      -0.77490000
H        2.29470000      -1.84350000       1.69560000
H        2.75820000       0.59950000       1.22050000
H        1.75680000       1.59270000       0.05760000
