14
Properties=species:S:1:pos:R:3 gdb_8096=T pbc="F F F"
C       -0.09150000       1.49330000       0.05080000
C        0.06410000       0.01100000       0.05410000
O       -1.15700000      -0.78020000      -0.02800000
C       -0.68030000      -1.65180000       0.93810000
O       -1.26340000      -2.54850000       1.45270000
C        0.66710000      -0.99000000       1.04500000
C        1.21010000      -0.81960000      -0.38610000
O        1.05450000      -1.76880000      -1.38090000
H        0.87890000       1.97820000       0.18780000
H       -0.50910000       1.82760000      -0.90450000
H       -0.76310000       1.81500000       0.85170000
H        1.26930000      -0.87720000       1.93540000
H        2.16290000      -0.28400000      -0.39140000
H        1.60320000      -2.53160000      -1.16780000
