20
Properties=species:S:1:pos:R:3 gdb_116085=T pbc="F F F"
C        0.01600000       1.50240000       0.00880000
C       -0.01260000      -0.02530000       0.08360000
C       -1.41270000      -0.60260000      -0.00530000
O       -1.33700000      -1.99200000      -0.00390000
C       -2.63180000      -2.57630000      -0.07260000
C       -3.42710000      -2.18350000       1.17210000
C       -3.36220000      -0.69400000       1.41540000
N       -4.31660000      -0.06040000       1.95100000
O       -2.16830000      -0.09560000       1.11360000
H        1.04340000       1.87110000       0.07330000
H       -0.40800000       1.86320000      -0.93480000
H       -0.55840000       1.94450000       0.82630000
H        0.56780000      -0.46540000      -0.73390000
H        0.42940000      -0.37840000       1.02130000
H       -1.93240000      -0.25970000      -0.91860000
H       -3.14520000      -2.24160000      -0.98820000
H       -2.48880000      -3.65710000      -0.13580000
H       -4.47320000      -2.48800000       1.11010000
H       -2.97980000      -2.68040000       2.04130000
H       -4.06060000       0.92360000       2.06190000
