19
Properties=species:S:1:pos:R:3 gdb_87530=T pbc="F F F"
O       -0.14490000       1.45480000      -0.06330000
C       -0.02630000       0.06120000       0.00220000
C       -0.50210000      -0.67990000       1.24600000
C       -1.29780000      -0.69870000      -0.01990000
C       -2.74470000      -0.24920000      -0.22280000
C       -2.80580000       0.05550000      -1.73500000
C       -2.08350000      -1.24340000      -2.22880000
C       -1.83800000      -1.87250000      -0.83900000
O       -3.12950000      -1.66470000      -0.18220000
H        0.54990000       1.84090000       0.48040000
H        0.83320000      -0.35510000      -0.52610000
H        0.03660000      -1.57190000       1.55160000
H       -0.88120000      -0.07290000       2.06260000
H       -3.28240000       0.38520000       0.48040000
H       -3.83680000       0.12470000      -2.08750000
H       -2.27380000       0.97390000      -1.99250000
H       -2.72520000      -1.87820000      -2.84320000
H       -1.15730000      -1.04440000      -2.77450000
H       -1.45380000      -2.89000000      -0.76500000
