24
Properties=species:S:1:pos:R:3 gdb_120638=T pbc="F F F"
C        0.03340000       1.45690000      -0.30350000
C        0.19850000      -0.05050000      -0.09660000
C        0.52510000      -0.41500000       1.35300000
N        0.62970000      -1.86320000       1.50020000
C        1.95060000      -2.47330000       1.37190000
C        1.24450000      -2.45000000       2.69230000
C        1.78200000      -1.59790000       3.82600000
C        0.54320000      -3.71930000       3.15270000
O        1.39750000      -4.57920000       3.89440000
H        0.94740000       1.99990000      -0.03730000
H       -0.19820000       1.69040000      -1.34700000
H       -0.77880000       1.85680000       0.31390000
H       -0.71500000      -0.57910000      -0.39090000
H        0.99710000      -0.43080000      -0.74610000
H        1.44060000       0.11720000       1.66270000
H       -0.28210000      -0.06720000       2.01020000
H        2.00300000      -3.38020000       0.77170000
H        2.80750000      -1.80920000       1.25890000
H        2.43730000      -0.79530000       3.48260000
H        0.96080000      -1.14940000       4.39800000
H        2.34820000      -2.23560000       4.51040000
H       -0.27980000      -3.46610000       3.83130000
H        0.10830000      -4.22190000       2.27780000
H        2.11980000      -4.83780000       3.31220000
