16
Properties=species:S:1:pos:R:3 gdb_133709=T pbc="F F F"
C       -0.01240000       1.50720000      -0.18340000
C        0.03630000       0.02050000       0.04950000
O        1.31400000      -0.63290000      -0.04230000
C        0.65860000      -0.62180000       1.22280000
C        1.32930000       0.11570000       2.35780000
C        0.13040000      -1.99240000       1.62650000
F        1.11560000      -2.76410000       2.10910000
F       -0.79290000      -1.86740000       2.59720000
F       -0.43360000      -2.64580000       0.60820000
H        0.80570000       2.03180000       0.31260000
H        0.05420000       1.71450000      -1.25620000
H       -0.96290000       1.91440000       0.17700000
H       -0.75960000      -0.53960000      -0.44030000
H        1.72000000       1.07540000       2.02080000
H        0.62320000       0.28450000       3.17560000
H        2.16270000      -0.47800000       2.74340000
