19
Properties=species:S:1:pos:R:3 gdb_24425=T pbc="F F F"
C        0.01690000       1.54890000      -0.03710000
C        1.47740000       2.03560000       0.01980000
N        2.17970000       1.64490000       1.25400000
C        1.87360000       0.31540000       1.59950000
C        0.90220000      -0.49870000       1.06270000
C       -0.06140000       0.00940000       0.02810000
C        1.04970000      -1.77670000       1.68480000
C        2.09100000      -1.69070000       2.57600000
N        2.59480000      -0.40640000       2.51570000
H       -0.53040000       1.98200000       0.81010000
H       -0.46080000       1.92040000      -0.95040000
H        2.03400000       1.61560000      -0.82770000
H        1.52920000       3.12500000      -0.06680000
H        1.94890000       2.28900000       2.00590000
H       -1.08880000      -0.30160000       0.25320000
H        0.16900000      -0.41220000      -0.96120000
H        0.44540000      -2.65410000       1.50680000
H        2.51230000      -2.41860000       3.24980000
H        3.41220000      -0.06860000       2.99250000
