18
Properties=species:S:1:pos:R:3 gdb_53834=T pbc="F F F"
N       -0.21780000       1.32860000       0.04990000
C        0.01550000      -0.01110000       0.06520000
N        1.20000000      -0.50120000       0.06540000
C       -1.28890000      -0.81210000       0.08200000
O       -2.34690000      -0.24680000      -0.07030000
C       -1.18570000      -2.32260000       0.25060000
N       -2.48350000      -2.92390000       0.45400000
C       -3.26730000      -3.20420000      -0.74210000
C       -2.63210000      -4.31200000       0.02330000
H        0.55410000       1.94280000      -0.14580000
H       -1.15710000       1.62970000      -0.15090000
H        1.18200000      -1.51630000       0.11400000
H       -0.65090000      -2.71520000      -0.63780000
H       -0.54750000      -2.54090000       1.11590000
H       -4.33150000      -3.00840000      -0.66020000
H       -2.83270000      -2.95430000      -1.70850000
H       -1.77240000      -4.80390000      -0.42970000
H       -3.22320000      -4.94370000       0.67950000
