20
Properties=species:S:1:pos:R:3 gdb_50042=T pbc="F F F"
O       -0.09890000       0.26840000       0.76940000
C        0.39360000       0.71580000      -0.23660000
C        1.47670000       1.73490000      -0.25120000
N        2.25900000       1.80780000      -1.50820000
C        1.40170000       2.93450000      -1.15200000
C        0.23120000       3.25160000      -2.10120000
C        0.26980000       4.78920000      -2.29240000
C        1.69650000       5.20270000      -1.88550000
C        2.00130000       4.26740000      -0.70440000
H        0.06650000       0.39340000      -1.24970000
H        1.98170000       1.86760000       0.70340000
H        3.23320000       2.00250000      -1.28770000
H        0.39260000       2.72100000      -3.04350000
H       -0.73170000       2.92090000      -1.70260000
H        0.01180000       5.09100000      -3.31060000
H       -0.45300000       5.26820000      -1.62230000
H        2.39670000       5.00620000      -2.70620000
H        1.77910000       6.26160000      -1.62700000
H        1.48370000       4.62590000       0.19430000
H        3.06480000       4.18570000      -0.45800000
