20
Properties=species:S:1:pos:R:3 gdb_41202=T pbc="F F F"
C        0.00270000       1.59470000      -0.17650000
O        1.46960000       1.50370000       0.02470000
C        1.18690000       0.26830000       0.82350000
C        1.34540000      -1.28860000       0.82180000
N       -0.20960000      -1.32320000       0.77530000
C       -0.75660000      -1.18540000       2.13340000
C       -0.41970000       0.16840000       2.79280000
C        0.95160000       0.67450000       2.30060000
C       -0.01060000       0.03490000       0.01610000
H       -0.46490000       2.20610000       0.60050000
H       -0.24310000       1.97190000      -1.17180000
H        1.74130000      -1.72860000      -0.09470000
H        1.77460000      -1.77060000       1.70610000
H       -1.84250000      -1.32220000       2.07960000
H       -0.36370000      -2.02210000       2.72220000
H       -1.18710000       0.89520000       2.50430000
H       -0.45660000       0.09770000       3.88490000
H        1.76170000       0.25630000       2.90920000
H        1.01800000       1.76100000       2.39010000
H        0.27840000      -0.32430000      -0.97440000
