18
Properties=species:S:1:pos:R:3 gdb_84937=T pbc="F F F"
C       -0.04100000       1.45720000      -0.34550000
N        0.01730000       0.01030000      -0.11780000
C       -1.21050000      -0.60050000       0.20300000
C       -1.54510000      -1.88620000       0.34060000
C       -0.67110000      -3.08250000       0.12670000
C        0.62950000      -2.71160000      -0.56210000
O        1.41830000      -1.83170000       0.25190000
C        1.29020000      -0.49090000       0.14590000
O        2.24970000       0.22570000       0.28840000
H        0.88030000       1.77660000      -0.82750000
H       -0.89200000       1.68230000      -0.99210000
H       -0.14540000       2.01130000       0.59520000
H       -1.98360000       0.14470000       0.36270000
H       -2.57430000      -2.07490000       0.62930000
H       -0.44430000      -3.58160000       1.07880000
H       -1.19850000      -3.82680000      -0.48620000
H        1.25960000      -3.59030000      -0.71880000
H        0.43820000      -2.24480000      -1.53450000
