16
Properties=species:S:1:pos:R:3 gdb_128052=T pbc="F F F"
C        0.09660000       1.38240000       0.00220000
N       -0.09520000      -0.05040000       0.02020000
C       -1.27010000      -0.68700000       0.00520000
N       -2.41220000       0.02490000      -0.01460000
H       -3.29070000      -0.46000000       0.03450000
H       -2.42040000       1.02330000       0.09370000
C       -1.25820000      -2.09830000      -0.00410000
C       -2.25180000      -3.09100000      -0.00510000
N       -1.64400000      -4.26990000      -0.01040000
N       -0.29770000      -4.02700000      -0.01190000
N       -0.05130000      -2.74830000      -0.00880000
H        1.16660000       1.58930000      -0.02040000
H       -0.35470000       1.84160000      -0.88640000
H       -0.31770000       1.86240000       0.89860000
H        0.69310000      -0.68950000       0.01810000
H       -3.33040000      -3.01010000      -0.00310000
