17
Properties=species:S:1:pos:R:3 gdb_65690=T pbc="F F F"
O        0.22300000       1.52880000      -0.30730000
C        0.00930000       0.16920000       0.00650000
C        0.88410000      -0.63100000      -0.96850000
C        2.34610000      -0.26750000      -0.78220000
O        3.07740000      -0.84480000      -0.01690000
C        0.19800000      -0.25680000       1.50380000
C       -1.16820000      -0.95300000       1.42340000
O       -1.74640000      -1.73000000       2.12470000
C       -1.47680000      -0.32410000       0.05500000
H       -0.25070000       2.07490000       0.32860000
H        0.76260000      -1.70090000      -0.77800000
H        0.56500000      -0.40280000      -1.99100000
H        2.70650000       0.59500000      -1.38040000
H        1.06440000      -0.87570000       1.74710000
H        0.17890000       0.59880000       2.18930000
H       -2.18230000       0.51070000       0.14210000
H       -1.82830000      -0.99420000      -0.73370000
