16
Properties=species:S:1:pos:R:3 gdb_125011=T pbc="F F F"
C       -0.05380000       1.52370000       0.11620000
C        0.00070000       0.04040000      -0.02760000
C       -0.01870000      -0.76290000      -1.15290000
N       -0.15160000      -0.35980000      -2.49030000
C        0.04430000      -2.09640000      -0.65610000
N        0.09730000      -2.11600000       0.68570000
N        0.08190000      -0.82480000       1.02710000
C        0.04380000      -3.26950000      -1.44720000
C        0.04680000      -4.21970000      -2.18840000
H        0.94200000       1.98330000       0.15500000
H       -0.58540000       1.95570000      -0.73680000
H       -0.58770000       1.81930000       1.02540000
H        0.54100000       0.32350000      -2.77150000
H       -0.09590000      -1.15630000      -3.11460000
H        0.11460000      -0.58470000       2.00380000
H        0.04440000      -5.07480000      -2.81740000
