17
Properties=species:S:1:pos:R:3 gdb_126376=T pbc="F F F"
C        0.06430000       1.38740000       0.44100000
C       -0.03640000      -0.01690000      -0.18090000
C       -1.42590000      -0.55440000      -0.15900000
N       -2.22180000      -0.77360000      -1.16240000
C       -3.34680000      -1.23780000      -0.52830000
O       -4.40970000      -1.57900000      -1.24140000
C       -5.53160000      -2.05300000      -0.48900000
N       -3.27620000      -1.30920000       0.78060000
O       -1.96910000      -0.84460000       1.03150000
H        1.09920000       1.73820000       0.41090000
H       -0.55540000       2.10240000      -0.10750000
H       -0.26540000       1.37790000       1.48300000
H        0.28890000      -0.00470000      -1.22330000
H        0.61450000      -0.70950000       0.36440000
H       -5.88280000      -1.28350000       0.20500000
H       -6.30310000      -2.28490000      -1.22290000
H       -5.26340000      -2.94820000       0.08000000
