16
Properties=species:S:1:pos:R:3 gdb_24778=T pbc="F F F"
O       -0.01810000      -0.07230000       0.00430000
C       -0.00240000       1.15550000       0.00990000
C       -1.24110000       1.95900000       0.03060000
C       -1.24520000       3.31710000       0.03710000
N       -0.04350000       3.95440000       0.02350000
C        0.54510000       5.29960000       0.02310000
C        1.94480000       4.58600000       0.00040000
C        1.15340000       3.28680000       0.00430000
C        1.24350000       1.94140000      -0.00320000
H       -2.17620000       1.41250000       0.04080000
H       -2.13940000       3.92970000       0.05220000
H        0.30090000       5.88960000      -0.86500000
H        0.32490000       5.87950000       0.92400000
H        2.53820000       4.77010000      -0.89710000
H        2.56230000       4.76080000       0.88340000
H        2.19080000       1.41730000      -0.01830000
