18
Properties=species:S:1:pos:R:3 gdb_9483=T pbc="F F F"
C       -0.62820000       1.27270000       0.00830000
C        0.14960000      -0.02760000      -0.09280000
C        1.52630000      -0.06880000      -0.81140000
C        2.02890000      -1.06920000       0.26060000
C        0.84980000      -0.61110000       1.19580000
N        1.15660000       0.42140000       2.18330000
C        0.12950000      -1.69520000       1.86410000
N       -0.42690000      -2.57840000       2.36100000
H       -0.02600000       2.07920000       0.43600000
H       -0.95730000       1.59060000      -0.98690000
H       -1.51560000       1.15490000       0.63740000
H       -0.49220000      -0.81150000      -0.50570000
H        1.53480000      -0.40430000      -1.84990000
H        2.04430000       0.89430000      -0.75990000
H        1.92040000      -2.10840000      -0.05770000
H        3.03020000      -0.92590000       0.67380000
H        1.71570000       0.02450000       2.93350000
H        1.72060000       1.14880000       1.75350000
