13
Properties=species:S:1:pos:R:3 gdb_3374=T pbc="F F F"
O        0.07830000       1.39080000       0.03870000
C        0.02350000       0.01000000       0.03690000
C       -0.43730000      -0.78180000       1.25600000
O       -1.08220000      -0.03350000       2.26370000
C       -2.41700000       0.11100000       1.82850000
O       -2.37360000       0.17960000       0.40750000
C       -1.31840000      -0.69040000       0.03360000
H       -0.83250000       1.69910000       0.13950000
H        0.82150000      -0.43790000      -0.54920000
H        0.06240000      -1.68490000       1.59010000
H       -3.02860000      -0.75030000       2.14440000
H       -2.82860000       1.04560000       2.21820000
H       -1.59540000      -1.50640000      -0.62510000
