20
Properties=species:S:1:pos:R:3 gdb_90871=T pbc="F F F"
C       -0.82440000       1.30820000       0.14810000
C        0.04070000       0.06480000       0.01500000
C        0.74780000      -0.03470000      -1.34220000
N        1.59450000      -1.23880000      -1.41290000
C        2.99660000      -1.19090000      -1.02360000
C        3.27180000      -0.11570000       0.03210000
C        2.11460000      -0.72890000       0.89860000
O        0.97090000       0.07650000       1.09860000
C        1.96970000      -1.85280000      -0.14750000
H       -0.22040000       2.21240000       0.02340000
H       -1.61760000       1.30910000      -0.60590000
H       -1.28660000       1.34190000       1.13820000
H       -0.59420000      -0.83200000       0.11120000
H       -0.00810000      -0.10350000      -2.13230000
H        1.33400000       0.87280000      -1.53370000
H        3.72060000      -1.64350000      -1.69140000
H        4.24400000      -0.24530000       0.51440000
H        3.15890000       0.93090000      -0.26470000
H        2.45340000      -1.05210000       1.88530000
H        1.74180000      -2.89850000       0.02670000
