23
Properties=species:S:1:pos:R:3 gdb_120562=T pbc="F F F"
O       -0.07590000       1.46060000      -0.03330000
C        0.00450000       0.04490000       0.04970000
C       -1.39630000      -0.52090000      -0.14850000
C       -1.44480000      -2.04010000      -0.06900000
C       -1.22490000      -2.74080000       1.30570000
C       -2.34260000      -3.75020000       0.92880000
C       -3.31450000      -4.18000000       2.00640000
O       -4.30850000      -4.99580000       1.40160000
C       -2.82450000      -2.75060000      -0.15720000
H        0.80550000       1.82000000       0.10220000
H        0.68030000      -0.36140000      -0.72130000
H        0.40090000      -0.27350000       1.02780000
H       -2.05880000      -0.08560000       0.61060000
H       -1.77270000      -0.18310000      -1.12250000
H       -0.76170000      -2.47160000      -0.81130000
H       -0.23260000      -3.13830000       1.53350000
H       -1.53650000      -2.09040000       2.13220000
H       -1.91670000      -4.64460000       0.46170000
H       -2.77530000      -4.72680000       2.79870000
H       -3.76250000      -3.28660000       2.47360000
H       -4.94860000      -5.24180000       2.07570000
H       -3.62740000      -2.10960000       0.22460000
H       -3.13370000      -3.15390000      -1.12360000
