19
Properties=species:S:1:pos:R:3 gdb_76184=T pbc="F F F"
C       -0.11540000       1.45940000       0.04780000
C        0.03030000      -0.05040000       0.01680000
C       -1.14030000      -0.77320000      -0.62390000
C        1.38810000      -0.64410000      -0.15580000
O        2.48080000       0.22190000      -0.28390000
C        0.75280000      -0.69220000       1.24160000
O        1.29570000       0.16380000       2.19990000
C        0.35750000      -2.00070000       1.80870000
O       -0.01730000      -2.96020000       1.17120000
H        0.70970000       1.95270000       0.55890000
H       -0.16490000       1.84720000      -0.97530000
H       -1.04360000       1.73460000       0.55840000
H       -1.24700000      -0.45000000      -1.66590000
H       -1.01540000      -1.85590000      -0.60160000
H       -2.07200000      -0.53010000      -0.10170000
H        1.46690000      -1.59300000      -0.68280000
H        3.28520000      -0.30700000      -0.24980000
H        2.11030000       0.52130000       1.81910000
H        0.46180000      -2.03680000       2.91450000
