18
Properties=species:S:1:pos:R:3 gdb_84727=T pbc="F F F"
O        0.27350000       1.30730000      -0.45200000
C        0.00730000      -0.02450000       0.00360000
C        0.85410000      -0.31350000       1.21090000
C        0.62210000      -1.04560000       2.30960000
C       -0.55600000      -1.79600000       2.71420000
C       -1.78840000      -1.78970000       2.18560000
C       -2.29820000      -0.96430000       1.07370000
N       -2.17950000       0.52110000       1.15940000
C       -1.49930000      -0.19160000       0.07750000
H       -0.07780000       1.89080000       0.23230000
H        0.36500000      -0.66360000      -0.81680000
H        1.83590000       0.14460000       1.11210000
H        1.45300000      -1.12320000       3.00820000
H       -0.39900000      -2.44600000       3.57210000
H       -2.53050000      -2.44600000       2.63360000
H       -3.24810000      -1.32440000       0.68230000
H       -3.03680000       0.95300000       0.82500000
H       -1.94560000      -0.11980000      -0.91450000
