13
Properties=species:S:1:pos:R:3 gdb_1590=T pbc="F F F"
C       -0.08270000       1.42880000      -0.01640000
C        0.04220000      -0.07010000       0.04430000
O        0.19080000      -0.69330000       1.06970000
C       -0.00490000      -0.86680000      -1.28840000
O        0.24820000      -2.22120000      -1.03950000
C       -1.29810000      -0.64470000      -1.94690000
C       -2.36150000      -0.45930000      -2.47530000
H        0.73600000       1.84490000      -0.61450000
H       -1.01580000       1.70660000      -0.51500000
H       -0.05130000       1.84640000       0.99020000
H        0.78920000      -0.45700000      -1.93500000
H        0.24330000      -2.29860000      -0.06980000
H       -3.29880000      -0.30850000      -2.95200000
