18
Properties=species:S:1:pos:R:3 gdb_12289=T pbc="F F F"
C        0.14830000       0.95910000      -0.40440000
O       -0.41610000       0.02780000       0.50610000
C        0.52360000      -0.52450000       1.40120000
C       -0.10450000      -1.39870000       2.50570000
C        0.97390000      -2.49030000       2.21420000
O        0.57400000      -3.82370000       2.11560000
C        1.28490000      -1.77910000       0.85910000
O        0.55530000      -2.39500000      -0.18790000
H        0.91820000       0.49750000      -1.03770000
H       -0.66430000       1.32140000      -1.03780000
H        0.59450000       1.81030000       0.12860000
H        1.20000000       0.25030000       1.78340000
H       -0.16090000      -0.98030000       3.51200000
H       -1.09690000      -1.74310000       2.20340000
H        1.81290000      -2.43360000       2.91470000
H        0.20530000      -3.90660000       1.22330000
H        2.33280000      -1.67750000       0.56020000
H       -0.19190000      -1.80620000      -0.37450000
