19
Properties=species:S:1:pos:R:3 gdb_113417=T pbc="F F F"
C       -0.03660000       1.57710000      -0.58240000
C        0.02930000       0.21480000       0.11700000
C       -1.32990000      -0.44070000       0.25400000
C       -1.93770000      -1.24050000      -0.90010000
C       -1.47620000      -1.91770000       0.34150000
C       -0.47160000      -3.03460000       0.58100000
C       -1.56190000      -3.56650000       1.51750000
O       -1.73460000      -4.49160000       2.24190000
O       -2.42550000      -2.52780000       1.25910000
H        0.95840000       2.02310000      -0.67240000
H       -0.45770000       1.48280000      -1.58860000
H       -0.66730000       2.27660000      -0.02350000
H        0.69840000      -0.45220000      -0.44210000
H        0.47740000       0.33270000       1.11210000
H       -2.05350000       0.11710000       0.84450000
H       -3.00730000      -1.16680000      -1.06250000
H       -1.34690000      -1.37350000      -1.80180000
H       -0.25280000      -3.68690000      -0.26640000
H        0.45570000      -2.75870000       1.08680000
