16
Properties=species:S:1:pos:R:3 gdb_30113=T pbc="F F F"
C        0.15260000       1.49960000      -0.42030000
C       -0.04190000       0.07790000       0.03150000
O        1.09510000      -0.78610000       0.02100000
C        0.51110000      -0.48310000       1.28730000
C        1.32280000       0.28360000       2.25110000
N        2.20480000       1.21620000       2.06360000
C        2.63170000       1.55530000       3.33910000
C        1.97300000       0.79490000       4.24410000
O        1.12850000      -0.03160000       3.56040000
H        1.05050000       1.93110000       0.02390000
H        0.24210000       1.53160000      -1.51110000
H       -0.71600000       2.10450000      -0.13800000
H       -0.95270000      -0.40620000      -0.32910000
H       -0.02270000      -1.30710000       1.76000000
H        3.37910000       2.31450000       3.50520000
H        1.97460000       0.70510000       5.31640000
