14
Properties=species:S:1:pos:R:3 gdb_14817=T pbc="F F F"
O        0.10150000      -0.16070000      -0.26360000
C        0.06540000       1.00480000       0.03290000
C        1.26250000       1.92190000       0.00220000
C        1.01610000       3.26630000      -0.72670000
O        1.10010000       4.01810000       0.49840000
C        1.46070000       2.83880000       1.25670000
C        0.62680000       2.61350000       2.42520000
C       -0.04880000       2.41780000       3.39970000
H       -0.88430000       1.49800000       0.33620000
H        2.14530000       1.35940000      -0.29930000
H        1.80080000       3.54230000      -1.44010000
H        0.03670000       3.37790000      -1.20750000
H        2.51450000       2.88210000       1.56190000
H       -0.64720000       2.24710000       4.26090000
