17
Properties=species:S:1:pos:R:3 gdb_33656=T pbc="F F F"
N       -0.01620000      -1.17300000      -0.02540000
C       -0.01370000      -0.01520000      -0.01520000
C       -0.02170000       1.41000000       0.01590000
C       -0.66560000       2.33690000       1.13220000
C        0.71710000       3.00490000       1.33460000
C        1.22570000       2.37020000       0.01250000
N        0.71240000       2.98850000      -1.22460000
C       -0.62340000       2.38330000      -1.06510000
C       -1.51620000       3.02080000       0.03320000
H       -1.17810000       1.94050000       2.00690000
H        0.74920000       4.09620000       1.41030000
H        1.23850000       2.57360000       2.19490000
H        2.26250000       2.03380000      -0.03730000
H        0.73710000       4.00490000      -1.25460000
H       -1.09480000       2.05770000      -1.99370000
H       -2.52630000       2.60040000       0.00110000
H       -1.58630000       4.11280000       0.04940000
