20
Properties=species:S:1:pos:R:3 gdb_46777=T pbc="F F F"
N       -0.17190000       1.34510000      -0.11000000
C       -0.03680000       0.08850000      -0.05520000
C       -1.22890000      -0.82680000       0.12430000
C       -1.23290000      -2.08160000      -0.75820000
C       -0.02690000      -3.03700000      -0.52040000
C        0.70940000      -2.31900000      -1.68600000
C       -0.67640000      -1.81700000      -2.18680000
C        1.64710000      -1.21810000      -1.20060000
O        1.20370000      -0.51850000      -0.02850000
H        0.75010000       1.78330000      -0.18040000
H       -1.25640000      -1.13120000       1.17990000
H       -2.12090000      -0.22380000      -0.06120000
H       -2.22030000      -2.54630000      -0.70080000
H        0.44900000      -3.01260000       0.46310000
H       -0.27580000      -4.07020000      -0.77480000
H        1.26860000      -2.95000000      -2.38390000
H       -1.10360000      -2.49730000      -2.92780000
H       -0.74110000      -0.79450000      -2.57220000
H        2.60900000      -1.64700000      -0.90480000
H        1.83110000      -0.49220000      -2.00670000
