20
Properties=species:S:1:pos:R:3 gdb_83159=T pbc="F F F"
C       -0.15470000       1.57080000       0.09450000
C       -0.00760000       0.07040000      -0.00670000
C        0.66250000      -0.61910000      -1.18040000
C        1.37870000       0.13570000      -2.29430000
C        2.90200000      -0.02620000      -2.14510000
C        3.39080000       0.43070000      -0.77530000
O        4.43960000       1.02020000      -0.59870000
N        2.53480000       0.14990000       0.26140000
C        1.33450000      -0.62170000       0.17140000
H        0.77370000       2.09090000      -0.15320000
H       -0.93910000       1.93940000      -0.57540000
H       -0.42810000       1.86020000       1.11480000
H       -0.84510000      -0.48380000       0.40990000
H        0.22610000      -1.56640000      -1.48060000
H        1.05340000      -0.23870000      -3.26960000
H        1.12540000       1.20050000      -2.27600000
H        3.17570000      -1.08150000      -2.27260000
H        3.45880000       0.54640000      -2.88950000
H        2.84570000       0.48100000       1.16400000
H        1.35100000      -1.55200000       0.73490000
