17
Properties=species:S:1:pos:R:3 gdb_37840=T pbc="F F F"
C       -0.05580000       1.56650000       0.01510000
C        1.46760000       1.80920000       0.01390000
C        2.10930000       0.72240000      -0.51050000
C        2.61650000      -0.30720000       0.48320000
C        1.17480000      -0.94240000       0.55100000
C        0.78180000      -1.48720000      -0.82600000
O       -0.66200000      -1.11810000      -0.62730000
C        0.11950000       0.04010000      -0.19790000
C        1.11300000      -0.06580000      -1.35600000
H       -0.48180000       1.89710000       0.96820000
H       -0.66950000       1.98710000      -0.79130000
H        1.90600000       2.38940000       0.81980000
H        3.36230000      -1.02550000       0.12620000
H        2.93520000       0.11760000       1.43780000
H        0.85590000      -1.48230000       1.44280000
H        0.95240000      -2.47090000      -1.26310000
H        0.80450000       0.26080000      -2.34540000
