19
Properties=species:S:1:pos:R:3 gdb_70205=T pbc="F F F"
C       -0.34920000       1.54210000       0.18650000
C       -0.07570000       0.06220000       0.03530000
C       -0.80010000      -0.94800000       0.85610000
N        0.59680000      -0.59770000       1.15650000
C        1.62930000      -1.56230000       0.76880000
C        1.33460000      -2.38020000      -0.47240000
N        1.67550000      -3.59510000      -0.56230000
O        0.65330000      -1.74670000      -1.47340000
C        0.41040000      -0.34500000      -1.34390000
H        0.53060000       2.13590000      -0.08710000
H       -1.18240000       1.85720000      -0.45150000
H       -0.59940000       1.77240000       1.22440000
H       -1.52020000      -0.61820000       1.59950000
H       -1.01400000      -1.91820000       0.41560000
H        2.55820000      -0.99860000       0.61250000
H        1.81150000      -2.26020000       1.58790000
H        1.41050000      -3.96980000      -1.47630000
H       -0.33140000      -0.10540000      -2.11110000
H        1.32800000       0.21280000      -1.58490000
