18
Properties=species:S:1:pos:R:3 gdb_92941=T pbc="F F F"
C        0.08480000       1.58010000      -0.21940000
C       -0.04280000       0.08050000       0.04960000
N        0.55060000      -0.72390000      -1.03240000
C        1.78240000      -1.14700000      -0.58710000
N        2.02890000      -1.05620000       0.66510000
C        0.80420000      -0.46830000       1.27120000
C        1.17800000       0.55870000       2.34750000
C        0.04290000      -1.56490000       1.90740000
N       -0.57080000      -2.40470000       2.41130000
H        1.13000000       1.87690000      -0.34740000
H       -0.45810000       1.84030000      -1.13450000
H       -0.34670000       2.16730000       0.59560000
H       -1.09600000      -0.18090000       0.17720000
H        0.45680000      -0.39960000      -1.98410000
H        2.48830000      -1.56850000      -1.29730000
H        1.78270000       1.35630000       1.91180000
H        0.28880000       0.99140000       2.81400000
H        1.77130000       0.06480000       3.11940000
