18
Properties=species:S:1:pos:R:3 gdb_121607=T pbc="F F F"
N        0.04270000       1.19070000      -0.17230000
C        0.00480000      -0.13560000       0.05660000
O        0.96750000      -0.84300000       0.30780000
C       -1.40850000      -0.71760000      -0.02300000
N       -2.38850000       0.08650000      -0.23010000
N       -1.39120000      -2.06140000       0.13740000
C       -2.56270000      -2.89600000       0.23680000
C       -2.18680000      -4.34910000      -0.01370000
O       -1.21170000      -4.70400000       0.95530000
H        0.91550000       1.68480000      -0.11100000
H       -0.83290000       1.66480000      -0.33480000
H       -3.29070000      -0.38800000      -0.24410000
H       -0.50060000      -2.44940000       0.42290000
H       -3.03960000      -2.80940000       1.22520000
H       -3.30170000      -2.58870000      -0.51350000
H       -3.08790000      -4.97520000       0.06930000
H       -1.79010000      -4.45070000      -1.03440000
H       -0.82510000      -5.54890000       0.70910000
