20
Properties=species:S:1:pos:R:3 gdb_89391=T pbc="F F F"
C       -0.48190000       1.44390000       0.00370000
C        0.10370000       0.03720000      -0.04860000
C        1.04260000      -0.29540000      -1.22930000
C        2.02590000      -1.32800000      -0.64580000
C        2.13640000      -2.67240000      -1.32270000
C        3.13390000      -0.80790000       0.19950000
N        1.89500000      -1.32400000       0.82520000
C        0.96070000      -0.30440000       1.18150000
O        0.87330000       0.18440000       2.27470000
H        0.30920000       2.19930000      -0.04880000
H       -1.17220000       1.61760000      -0.82700000
H       -1.01970000       1.59300000       0.94340000
H       -0.71660000      -0.69520000      -0.04370000
H        0.50230000      -0.70890000      -2.08390000
H        1.56250000       0.60300000      -1.57980000
H        2.56690000      -2.56550000      -2.32440000
H        2.77080000      -3.34930000      -0.74490000
H        1.15050000      -3.13830000      -1.42850000
H        4.01780000      -1.41260000       0.38370000
H        3.30500000       0.26550000       0.23880000
