16
Properties=species:S:1:pos:R:3 gdb_47172=T pbc="F F F"
O        0.11500000       0.04840000      -0.17740000
C        0.03940000       1.21360000       0.10930000
O       -1.14660000       1.86430000       0.17990000
C       -1.21750000       3.22180000       0.69420000
C       -0.07750000       4.08640000       0.21590000
C        1.06370000       3.42200000       0.10140000
C        2.51230000       3.46840000      -0.34410000
C        2.49580000       1.90710000      -0.19420000
N        1.12770000       2.03500000       0.35010000
H       -2.18700000       3.59200000       0.35480000
H       -1.24500000       3.15770000       1.79180000
H       -0.21530000       5.13390000      -0.00960000
H        2.68060000       3.84050000      -1.35610000
H        3.18600000       3.98440000       0.34330000
H        2.52380000       1.35140000      -1.13460000
H        3.21020000       1.47750000       0.51040000
