17
Properties=species:S:1:pos:R:3 gdb_74455=T pbc="F F F"
C       -0.03480000       1.46700000       0.08010000
C       -0.02060000      -0.01770000      -0.00200000
C       -0.06230000      -0.86120000      -1.03550000
C        0.02830000      -2.23290000      -0.34090000
C       -1.00320000      -2.04390000       0.82710000
C        0.08250000      -0.98600000       1.19270000
N        1.15470000      -1.93250000       0.65470000
C        0.10050000      -3.43820000      -1.13730000
N        0.14250000      -4.41180000      -1.75880000
H        0.88300000       1.84280000       0.54920000
H       -0.12030000       1.91920000      -0.91130000
H       -0.87100000       1.82630000       0.69290000
H       -0.11360000      -0.69320000      -2.10020000
H       -2.01020000      -1.70780000       0.56810000
H       -1.03110000      -2.89650000       1.51250000
H        0.21440000      -0.58360000       2.19580000
H        1.20280000      -2.73090000       1.29720000
