16
Properties=species:S:1:pos:R:3 gdb_36190=T pbc="F F F"
N       -0.15430000      -1.09010000      -0.36640000
C       -0.06920000       0.03350000      -0.11200000
C        0.05380000       1.45690000       0.21680000
C        1.47630000       1.94740000       0.13810000
C        2.66700000       1.57700000       1.02380000
C        3.37720000       2.76820000       0.33090000
O        3.53610000       2.31790000      -1.04550000
C        2.12650000       2.46260000      -1.16470000
C        1.96700000       3.38840000      -0.00710000
H       -0.58330000       2.02710000      -0.47070000
H       -0.35770000       1.61430000       1.22180000
H        2.45900000       1.78550000       2.07690000
H        3.13410000       0.59520000       0.90500000
H        4.25690000       3.26210000       0.73570000
H        1.66580000       2.41810000      -2.14310000
H        1.49600000       4.35110000       0.13670000
