17
Properties=species:S:1:pos:R:3 gdb_130310=T pbc="F F F"
N        0.17790000       1.32290000      -0.19870000
C        0.07210000      -0.05090000      -0.07570000
N       -1.09170000      -0.66130000      -0.08840000
O       -0.79700000      -2.01410000       0.14270000
C        0.52790000      -2.14870000       0.27230000
C        1.16540000      -0.95710000       0.14370000
C        2.59970000      -0.61350000       0.22950000
C        3.66330000      -1.60280000      -0.17360000
C        3.41840000      -0.39030000      -1.03250000
H        1.00460000       1.62390000      -0.69560000
H       -0.66160000       1.75650000      -0.55890000
H        0.88470000      -3.15050000       0.45850000
H        2.85710000       0.04120000       1.05900000
H        4.57070000      -1.64170000       0.41800000
H        3.34160000      -2.56300000      -0.56080000
H        2.92310000      -0.54330000      -1.98500000
H        4.15770000       0.40290000      -1.02720000
