18
Properties=species:S:1:pos:R:3 gdb_125818=T pbc="F F F"
C       -0.04770000       1.49770000      -0.01170000
C       -0.01660000       0.00280000       0.01530000
N        0.00090000      -0.67290000      -1.10950000
O        0.04440000      -2.01670000      -0.74770000
C        0.05350000      -2.09870000       0.58990000
C        0.01560000      -0.86510000       1.15760000
C       -0.00620000      -0.49530000       2.60880000
C       -1.42040000      -0.24110000       3.13820000
O       -1.30250000       0.13100000       4.50020000
H        0.80730000       1.91720000       0.52910000
H       -0.01570000       1.85240000      -1.04350000
H       -0.95530000       1.88580000       0.46220000
H        0.09640000      -3.09650000       1.00040000
H        0.44760000      -1.28830000       3.21190000
H        0.58920000       0.40820000       2.78230000
H       -1.90490000       0.55040000       2.54410000
H       -2.02450000      -1.15380000       3.01590000
H       -2.18480000       0.28340000       4.85080000
