19
Properties=species:S:1:pos:R:3 gdb_87853=T pbc="F F F"
O       -0.08630000       1.33980000      -0.10220000
C        0.03000000      -0.04530000      -0.00940000
C       -0.40450000      -0.76330000       1.26720000
C       -1.22900000      -0.84850000       0.01710000
O       -2.43840000      -0.07240000      -0.04190000
C       -3.26570000      -0.92130000      -0.87010000
C       -3.04660000      -2.32390000      -0.25090000
C       -1.60600000      -2.06290000      -0.80650000
C       -2.31120000      -1.35320000      -2.00990000
H       -1.02430000       1.51810000      -0.25860000
H        0.89760000      -0.43170000      -0.53940000
H        0.15240000      -1.63820000       1.58900000
H       -0.79180000      -0.13740000       2.06440000
H       -4.23600000      -0.45030000      -1.01560000
H       -3.17490000      -2.41700000       0.82930000
H       -3.56890000      -3.11950000      -0.78470000
H       -0.85950000      -2.84590000      -0.92720000
H       -2.76630000      -2.05580000      -2.70950000
H       -1.76830000      -0.56490000      -2.53600000
