17
Properties=species:S:1:pos:R:3 gdb_79005=T pbc="F F F"
C       -0.21250000       1.62160000      -0.09740000
C       -0.04870000       0.11660000       0.02160000
C        1.17330000      -0.59220000      -0.70890000
C        2.15360000      -0.19370000       0.41890000
N        2.60080000      -1.59470000       0.88410000
C        2.23490000      -1.45690000       2.33650000
N        1.16410000      -0.79560000       2.56690000
C        0.82970000      -0.49100000       1.15060000
C        1.17320000      -1.74030000       0.32010000
H        0.73590000       2.14650000       0.05510000
H       -0.59140000       1.89300000      -1.08840000
H       -0.92500000       1.99600000       0.64450000
H       -1.00200000      -0.40250000      -0.12930000
H        1.36680000      -0.64920000      -1.77830000
H        2.80550000       0.67500000       0.51000000
H        2.86640000      -1.90450000       3.09550000
H        0.64870000      -2.69630000       0.29570000
