17
Properties=species:S:1:pos:R:3 gdb_104836=T pbc="F F F"
C        1.01060000      -0.70640000       1.24300000
O        0.18610000      -0.38170000       0.13300000
C        0.76760000      -0.50430000      -1.12830000
C        2.14980000       0.14670000      -1.28020000
O        2.14430000       1.48240000      -0.83550000
C        0.58610000      -1.86310000      -1.86120000
O       -0.25970000      -1.20800000      -2.86650000
C       -0.19160000      -0.00260000      -2.22650000
O       -0.68800000       1.03380000      -2.53510000
H        1.44010000      -1.71500000       1.15670000
H        1.81510000       0.02550000       1.37310000
H        0.35990000      -0.68010000       2.11920000
H        2.89190000      -0.38510000      -0.67570000
H        2.46350000       0.05340000      -2.33240000
H        1.41310000       1.93860000      -1.27100000
H        1.46310000      -2.30950000      -2.33430000
H        0.01650000      -2.60110000      -1.29480000
