20
Properties=species:S:1:pos:R:3 gdb_59054=T pbc="F F F"
C        0.35810000       0.83200000      -0.81060000
C       -0.04410000       0.07850000       0.46390000
O        0.05510000       0.91760000       1.58690000
C       -1.45270000      -0.48170000       0.35740000
N       -2.33660000      -0.11230000       1.18910000
C       -3.70280000      -0.60270000       1.05290000
C       -3.99130000      -1.14550000      -0.35040000
C       -2.83540000      -2.04340000      -0.76930000
O       -1.58040000      -1.34820000      -0.67250000
H        1.36970000       1.22690000      -0.68840000
H        0.33590000       0.17300000      -1.68230000
H       -0.32060000       1.67370000      -0.97980000
H        0.63190000      -0.78420000       0.58430000
H       -0.83830000       0.92840000       1.97040000
H       -3.87410000      -1.38090000       1.80920000
H       -4.38600000       0.21700000       1.29940000
H       -4.93060000      -1.70680000      -0.37770000
H       -4.07970000      -0.31610000      -1.06120000
H       -2.78310000      -2.93560000      -0.13180000
H       -2.91140000      -2.36840000      -1.80920000
