15
Properties=species:S:1:pos:R:3 gdb_2021=T pbc="F F F"
O       -0.00870000       0.14280000      -0.61210000
C       -0.01600000       1.22770000      -0.10980000
C       -1.13580000       2.18080000       0.35370000
C       -0.02910000       3.16280000       0.78590000
C       -0.05080000       4.65480000       0.64280000
C       -0.02320000       4.01940000       2.01600000
C        1.09060000       2.21030000       0.32260000
H       -1.79130000       2.51580000      -0.45740000
H       -1.75880000       1.76950000       1.15520000
H        0.84950000       5.14820000       0.29030000
H       -0.97330000       5.12420000       0.31580000
H       -0.92710000       4.06000000       2.61570000
H        0.89570000       4.08400000       2.59020000
H        1.74650000       1.81590000       1.10620000
H        1.71410000       2.56210000      -0.50640000
