21
Properties=species:S:1:pos:R:3 gdb_59888=T pbc="F F F"
C        0.08000000       1.60460000       0.03680000
C       -0.06200000       0.08790000       0.05190000
O        0.35620000      -0.39160000      -1.21310000
C        0.75870000      -0.55240000       1.18310000
C        0.66590000      -2.06880000       1.22640000
O        0.17430000      -2.71220000       0.31210000
C        1.21520000      -2.74380000       2.43260000
C        0.51620000      -4.01580000       2.90170000
C        1.84530000      -4.11850000       2.24280000
H        1.12600000       1.88760000      -0.12110000
H       -0.51130000       2.02460000      -0.78100000
H       -0.26350000       2.04420000       0.97850000
H       -1.12170000      -0.16760000       0.22320000
H        0.23050000      -1.35030000      -1.17520000
H        1.82120000      -0.29360000       1.06110000
H        0.46040000      -0.15320000       2.16150000
H        1.64060000      -2.09940000       3.19310000
H        0.44390000      -4.16850000       3.97220000
H       -0.35260000      -4.30890000       2.32400000
H        1.87070000      -4.48150000       1.22200000
H        2.71710000      -4.34510000       2.84550000
