19
Properties=species:S:1:pos:R:3 gdb_36005=T pbc="F F F"
C       -0.02190000      -1.19280000       0.15170000
C        0.01900000       0.00730000       0.10420000
C        0.09150000       1.46090000       0.06770000
C        1.53310000       2.00950000      -0.14820000
C        2.06430000       1.61320000      -1.45150000
C        2.48430000       1.31600000      -2.53770000
C        1.55860000       3.52410000       0.01860000
C        1.64110000       4.12430000       1.39970000
C        2.81860000       4.21630000       0.45900000
H       -0.06470000      -2.25310000       0.18290000
H       -0.55510000       1.84850000      -0.72870000
H       -0.28670000       1.87460000       1.01000000
H        2.16770000       1.57040000       0.63340000
H        2.86350000       1.03890000      -3.48990000
H        0.94640000       4.05290000      -0.70690000
H        1.07080000       5.02270000       1.60740000
H        1.72190000       3.44590000       2.24350000
H        3.68550000       3.59920000       0.67060000
H        3.05670000       5.17830000       0.01960000
