16
Properties=species:S:1:pos:R:3 gdb_23523=T pbc="F F F"
O       -0.14990000       1.34520000      -0.01450000
N        0.00750000      -0.06230000       0.00920000
C       -1.11240000      -0.64470000       0.01280000
C       -2.62160000      -0.41490000       0.00110000
C       -2.63760000      -1.59060000      -1.04490000
O       -2.23430000      -1.37560000      -2.35810000
C       -1.60620000      -2.08230000       0.03360000
C       -2.64880000      -1.55590000       1.08460000
O       -2.25930000      -1.29830000       2.39420000
H        0.76530000       1.64610000      -0.01460000
H       -3.17220000       0.52150000      -0.01700000
H       -3.57060000      -2.15680000      -1.08430000
H       -1.39770000      -0.89350000      -2.35420000
H       -1.02750000      -3.00290000       0.05160000
H       -3.58220000      -2.12070000       1.13250000
H       -1.42260000      -0.81640000       2.38350000
