18
Properties=species:S:1:pos:R:3 gdb_22177=T pbc="F F F"
C        0.08500000       1.59500000      -0.01630000
C       -0.04390000       0.06640000       0.03540000
O       -1.40020000      -0.33340000       0.05390000
C        0.69590000      -0.61130000      -1.13810000
O        2.05620000      -0.69520000      -0.72460000
C        2.06400000      -1.04140000       0.65450000
C        0.76170000      -0.50880000       1.19280000
N        0.28300000      -0.54090000       2.36550000
O        1.16880000      -1.15030000       3.26840000
H        1.13010000       1.89470000      -0.14160000
H       -0.49730000       1.97990000      -0.85850000
H       -0.29510000       2.03940000       0.90820000
H       -1.69180000      -0.29740000       0.97270000
H        0.25670000      -1.60600000      -1.30580000
H        0.66460000      -0.03980000      -2.06800000
H        2.11360000      -2.13210000       0.80510000
H        2.94280000      -0.59830000       1.13280000
H        0.68120000      -1.11590000       4.09860000
