17
Properties=species:S:1:pos:R:3 gdb_113428=T pbc="F F F"
O        0.44310000       0.53720000       0.70910000
C       -0.19750000       0.23930000      -0.52460000
C       -1.50820000      -0.49520000      -0.34700000
C       -1.89700000      -1.63840000      -1.28730000
C       -1.48840000      -1.90740000       0.11590000
C       -0.36880000      -2.73270000       0.73080000
C       -1.46930000      -3.15900000       1.70680000
O       -1.59470000      -3.86250000       2.65450000
O       -2.43900000      -2.38800000       1.09980000
H       -0.14110000       1.10590000       1.22100000
H       -0.35140000       1.14790000      -1.12620000
H        0.51030000      -0.39150000      -1.07300000
H       -2.33840000       0.10340000       0.02210000
H       -2.94720000      -1.74890000      -1.53300000
H       -1.21130000      -1.90550000      -2.08580000
H        0.03450000      -3.54810000       0.12780000
H        0.43790000      -2.15670000       1.18700000
