16
Properties=species:S:1:pos:R:3 gdb_24071=T pbc="F F F"
N        0.10450000      -1.17980000       0.00070000
C        0.16540000      -0.03970000      -0.17330000
C        0.22650000       1.41200000      -0.37210000
N        1.23360000       2.01850000       0.50880000
C        1.43050000       3.40260000       0.30470000
C        0.70350000       4.52550000       0.64280000
C        1.42100000       5.65600000       0.16380000
C        2.55800000       5.19170000      -0.45800000
N        2.55360000       3.82520000      -0.36800000
H        0.51050000       1.61100000      -1.41070000
H       -0.78690000       1.82240000      -0.23770000
H        1.01560000       1.81250000       1.47670000
H       -0.23540000       4.53100000       1.17580000
H        1.13380000       6.69150000       0.26170000
H        3.36200000       5.71550000      -0.94890000
H        3.27610000       3.20000000      -0.68240000
