20
Properties=species:S:1:pos:R:3 gdb_114491=T pbc="F F F"
C       -0.19850000       1.51010000       0.05200000
C       -0.05820000      -0.01510000       0.01210000
C        0.77710000      -0.55760000       1.16530000
C        0.19540000      -0.50920000       2.62040000
C        0.42290000      -2.02720000       2.75300000
O       -0.75840000      -2.79260000       2.35360000
C       -0.28430000      -2.91990000       1.05700000
N       -0.77240000      -3.52500000       0.07270000
C        0.96660000      -2.10930000       1.30150000
H        0.77940000       2.00110000      -0.00970000
H       -0.80620000       1.87230000      -0.78250000
H       -0.67720000       1.84310000       0.97940000
H       -1.05050000      -0.48090000       0.02680000
H        0.40220000      -0.32130000      -0.93550000
H        1.76620000      -0.08840000       1.14800000
H        0.77970000       0.09570000       3.31740000
H       -0.85760000      -0.22950000       2.70450000
H        0.89100000      -2.45280000       3.63970000
H       -1.65880000      -3.97180000       0.31540000
H        1.91430000      -2.54670000       0.99460000
