23
Properties=species:S:1:pos:R:3 gdb_105230=T pbc="F F F"
C       -1.49300000       0.00640000      -0.17080000
C        0.02420000      -0.10340000       0.03470000
C        0.77610000      -0.66780000      -1.16650000
C        2.08440000      -1.39010000      -0.87750000
C        0.85130000      -2.16350000      -1.28650000
O        0.14950000      -2.91930000      -0.33800000
C        0.66590000       0.13250000      -2.47230000
C        1.16640000       1.57200000      -2.33690000
O        1.32130000      -0.52110000      -3.56000000
H       -1.75640000       0.70690000      -0.97010000
H       -1.91680000      -0.97020000      -0.42180000
H       -1.97890000       0.36050000       0.74400000
H        0.43850000       0.87700000       0.30010000
H        0.20960000      -0.75920000       0.88910000
H        2.90480000      -1.33280000      -1.58590000
H        2.38990000      -1.44930000       0.16200000
H        0.84740000      -2.56910000      -2.29570000
H        0.64900000      -3.72600000      -0.17630000
H       -0.38860000       0.15040000      -2.77120000
H        0.56740000       2.14720000      -1.62600000
H        2.20600000       1.58940000      -1.98630000
H        1.11850000       2.07210000      -3.30830000
H        2.26250000      -0.32870000      -3.49280000
