24
Properties=species:S:1:pos:R:3 gdb_80392=T pbc="F F F"
C       -0.16570000       1.53930000      -0.15580000
C        0.03390000       0.06280000       0.11070000
N        1.23430000      -0.71950000      -0.26520000
C        2.42820000       0.10840000       0.13170000
C        2.07320000       0.03850000       1.64630000
C        3.01160000      -0.94440000       2.35900000
C        1.97450000       1.32340000       2.47230000
C        0.76050000      -0.64710000       1.19490000
C        0.13030000      -1.81800000       1.90140000
H        0.70730000       2.15840000       0.04700000
H       -0.43500000       1.68500000      -1.20810000
H       -0.99300000       1.92150000       0.45220000
H       -0.84820000      -0.50020000      -0.19620000
H        3.34650000      -0.42440000      -0.12570000
H        2.46690000       1.09930000      -0.33050000
H        4.00870000      -0.50110000       2.45910000
H        2.65390000      -1.18580000       3.36610000
H        3.11580000      -1.87990000       1.80150000
H        1.30850000       2.06640000       2.03180000
H        1.60140000       1.10290000       3.47950000
H        2.96280000       1.78440000       2.58640000
H       -0.40470000      -1.48650000       2.79990000
H       -0.59180000      -2.31590000       1.24800000
H        0.87100000      -2.56160000       2.20860000
