18
Properties=species:S:1:pos:R:3 gdb_12886=T pbc="F F F"
C       -0.19180000       1.54720000      -0.02770000
C        0.01750000       0.04920000       0.06140000
C        1.34070000      -0.65960000      -0.19830000
C        2.62390000       0.13790000      -0.08680000
O        2.54660000       0.85070000       1.15130000
C        1.70360000       0.13490000       2.04580000
C        0.73650000      -0.66410000       1.18120000
O        0.22010000      -1.84190000       1.72300000
H        0.66280000       2.10020000       0.36630000
H       -0.34360000       1.85390000      -1.06860000
H       -1.08270000       1.84990000       0.53420000
H       -0.82260000      -0.53800000      -0.30470000
H        1.33530000      -1.56120000      -0.79920000
H        3.48930000      -0.54350000      -0.09630000
H        2.76930000       0.88410000      -0.87560000
H        2.26960000      -0.57680000       2.66750000
H        1.23090000       0.87240000       2.70520000
H       -0.57020000      -1.61830000       2.22580000
