17
Properties=species:S:1:pos:R:3 gdb_131286=T pbc="F F F"
O       -0.38250000       1.19500000      -0.01270000
C       -0.13700000      -0.12890000       0.08020000
N       -0.28900000      -0.93790000      -0.95710000
N        0.02750000      -2.17220000      -0.46920000
C        0.38680000      -2.11730000       0.83710000
C        0.28720000      -0.80470000       1.24480000
C        0.10120000      -3.29460000      -1.34990000
C       -0.56200000      -4.58150000      -0.93250000
C       -1.15330000      -3.74730000      -2.04060000
H       -0.65450000       1.36610000      -0.92310000
H        0.68020000      -3.00840000       1.36950000
H        0.47480000      -0.39330000       2.22180000
H        1.03140000      -3.36270000      -1.90790000
H       -0.05910000      -5.50840000      -1.18250000
H       -1.08140000      -4.59020000       0.01840000
H       -2.05460000      -3.18730000      -1.82500000
H       -1.06440000      -4.09560000      -3.06280000
