16
Properties=species:S:1:pos:R:3 gdb_18111=T pbc="F F F"
C       -0.09450000       1.20890000       0.03300000
O        1.12100000       1.89750000       0.24290000
C        2.13720000       0.91590000       0.43860000
C        2.51450000       0.71260000       1.92600000
C        1.86330000      -0.59880000       2.29130000
C        1.31280000      -1.21160000       1.24470000
C        1.46470000      -0.41500000      -0.02810000
O        0.22700000       0.00140000      -0.60950000
H       -0.60400000       1.02250000       0.99430000
H       -0.73530000       1.80240000      -0.62560000
H        2.99530000       1.21100000      -0.17000000
H        3.60320000       0.66780000       2.05850000
H        2.15950000       1.55330000       2.53180000
H        1.87540000      -0.98780000       3.30440000
H        0.79840000      -2.16530000       1.26230000
H        2.01060000      -0.95060000      -0.81020000
