10
Properties=species:S:1:pos:R:3 gdb_3930=T pbc="F F F"
O       -0.06230000       0.00220000      -0.00110000
C        0.02180000       1.19210000       0.00770000
N        1.24790000       1.90080000      -0.00040000
N        2.45930000       1.32690000      -0.01830000
C        3.28340000       2.35990000      -0.01950000
C        2.52550000       3.55790000      -0.00170000
N        1.24260000       3.24680000       0.01010000
H       -0.81180000       1.91160000       0.02210000
H        4.35270000       2.21770000      -0.03250000
H        2.85210000       4.58590000       0.00260000
