18
Properties=species:S:1:pos:R:3 gdb_80988=T pbc="F F F"
C       -0.08760000       1.49710000       0.00560000
C        0.08860000       0.00930000       0.00670000
C        1.00300000      -0.79920000      -0.94920000
C        0.67490000      -1.93830000       0.07410000
C        0.70780000      -0.80440000       1.17710000
O        1.97420000      -0.31650000       1.52990000
C       -0.81630000      -2.01520000      -0.09970000
N       -1.57230000      -3.01940000      -0.17060000
O       -1.19310000      -0.68580000      -0.14330000
H        0.87210000       1.97920000       0.20920000
H       -0.45820000       1.84480000      -0.96320000
H       -0.80120000       1.80070000       0.77740000
H        0.66250000      -0.92170000      -1.97910000
H        2.04380000      -0.48450000      -0.89950000
H        1.22190000      -2.87420000       0.14910000
H        0.05870000      -0.95270000       2.04960000
H        2.38730000      -0.94530000       2.13010000
H       -2.54620000      -2.72780000      -0.27610000
