20
Properties=species:S:1:pos:R:3 gdb_89218=T pbc="F F F"
C       -0.02810000       1.44900000       0.04650000
C        0.05010000      -0.05520000      -0.01780000
C        0.04980000      -0.73830000      -1.38210000
C       -0.76310000      -2.03580000      -1.13210000
O       -0.25190000      -3.20190000      -1.75250000
C       -0.68620000      -2.18570000       0.38340000
C        0.77410000      -2.27730000       0.89210000
C        0.66740000      -0.77780000       1.12770000
N       -0.84050000      -0.77680000       0.94030000
H        0.86550000       1.90590000      -0.39350000
H       -0.90210000       1.81550000      -0.50280000
H       -0.11420000       1.79020000       1.08180000
H       -0.41290000      -0.09810000      -2.13990000
H        1.05830000      -0.98880000      -1.72790000
H       -1.81330000      -1.87260000      -1.41780000
H       -0.35250000      -3.10670000      -2.70420000
H       -1.40190000      -2.89380000       0.79960000
H        0.84170000      -2.82640000       1.83320000
H        1.53260000      -2.65310000       0.20030000
H        1.12900000      -0.23410000       1.94820000
