17
Properties=species:S:1:pos:R:3 gdb_103115=T pbc="F F F"
N       -0.09510000       1.43310000       0.10070000
C       -0.01290000      -0.00170000      -0.02330000
C        1.07660000      -0.54610000      -0.92520000
O        2.33700000       0.02370000      -0.60470000
C       -0.38910000      -0.71180000       1.25600000
O       -0.69850000       0.04370000       2.35780000
C       -1.34120000      -0.76000000       0.04150000
C       -2.56830000      -0.02400000       0.05750000
N       -3.55290000       0.58420000       0.05370000
H        0.83820000       1.82010000      -0.00600000
H       -0.70040000       1.84510000      -0.60240000
H        1.10030000      -1.64530000      -0.87640000
H        0.87980000      -0.26340000      -1.96550000
H        2.59860000      -0.30160000       0.26390000
H        0.08500000      -1.65670000       1.50680000
H       -0.67220000       0.96780000       2.04590000
H       -1.38440000      -1.69660000      -0.50590000
