19
Properties=species:S:1:pos:R:3 gdb_17484=T pbc="F F F"
C       -0.01510000       1.51280000      -0.00390000
C        0.03000000      -0.00150000      -0.00300000
C       -1.29900000      -0.76340000       0.33880000
C       -0.49650000      -1.64660000       1.30160000
C        0.69580000      -0.75340000       1.19670000
N        0.76770000      -2.12470000       0.71920000
C        0.83870000      -2.13620000      -0.76100000
C        0.67750000      -0.66750000      -1.22530000
H        0.99050000       1.93670000      -0.10980000
H       -0.62320000       1.89080000      -0.83340000
H       -0.44580000       1.90010000       0.92580000
H       -1.99770000      -0.12550000       0.88740000
H       -1.83340000      -1.24620000      -0.48760000
H       -0.88840000      -2.19700000       2.15020000
H        1.39440000      -0.37250000       1.93340000
H        1.80290000      -2.55940000      -1.05620000
H        0.05790000      -2.79070000      -1.16090000
H        0.06040000      -0.57340000      -2.12530000
H        1.65180000      -0.21140000      -1.43870000
