16
Properties=species:S:1:pos:R:3 gdb_89703=T pbc="F F F"
O        0.03750000       1.37020000      -0.00190000
C        0.01460000      -0.03430000      -0.03230000
C        0.54320000      -0.70870000       1.28230000
C       -0.80030000      -1.33820000       1.71970000
C       -1.28190000      -2.06370000       0.43570000
C       -1.42580000      -0.58740000       0.02660000
O       -1.76160000      -0.26710000       1.42570000
C       -0.90920000      -1.91660000       3.04340000
N       -0.96970000      -2.40350000       4.08930000
H       -0.53770000       1.63240000       0.72940000
H        0.56330000      -0.34080000      -0.92550000
H        1.32380000      -1.45530000       1.12300000
H        0.90010000       0.03960000       1.99140000
H       -0.57280000      -2.70390000      -0.09270000
H       -2.24580000      -2.55070000       0.57840000
H       -2.15190000      -0.22030000      -0.69590000
