21
Properties=species:S:1:pos:R:3 gdb_101771=T pbc="F F F"
C       -0.12790000       1.51400000       0.03260000
C        0.04140000      -0.00960000       0.02620000
C        0.73000000      -0.49410000      -1.25170000
O       -0.08850000      -0.13580000      -2.35420000
C        0.81770000      -0.50670000       1.24080000
O        0.05750000      -0.17920000       2.41830000
C        0.62300000      -0.51680000       3.59660000
C       -0.26900000      -0.11940000       4.74850000
O        1.69420000      -1.06050000       3.69130000
H        0.84950000       2.01240000       0.01830000
H       -0.68460000       1.83780000      -0.84890000
H       -0.66080000       1.84250000       0.92800000
H       -0.95210000      -0.47600000       0.05050000
H        1.72890000      -0.03300000      -1.33140000
H        0.87450000      -1.58560000      -1.20590000
H        0.37040000      -0.38090000      -3.16250000
H        0.97160000      -1.59080000       1.21040000
H        1.80500000      -0.03620000       1.31220000
H       -0.43800000       0.96110000       4.73620000
H       -1.24580000      -0.60160000       4.65140000
H        0.19950000      -0.41160000       5.68740000
