20
Properties=species:S:1:pos:R:3 gdb_73984=T pbc="F F F"
C       -0.18630000       1.39090000      -0.34010000
C       -0.09770000       0.03780000       0.28600000
C       -1.12850000      -0.82860000       0.43870000
C       -1.70270000      -1.31640000      -0.91000000
C       -0.61580000      -2.44660000      -0.73540000
N        0.69770000      -2.18170000       0.01550000
C        1.18310000      -0.79420000       0.22580000
C       -0.56380000      -2.24690000       0.72960000
C       -0.83930000      -3.14230000       1.89660000
H        0.40630000       1.45310000      -1.26300000
H       -1.22280000       1.66080000      -0.56150000
H        0.21410000       2.16110000       0.33260000
H       -2.69170000      -1.78930000      -0.89220000
H       -1.64260000      -0.62190000      -1.75280000
H       -0.60970000      -3.38430000      -1.28330000
H        1.79210000      -0.44000000      -0.61520000
H        1.83180000      -0.80720000       1.11200000
H       -0.42990000      -2.72240000       2.82250000
H       -1.91650000      -3.27550000       2.04270000
H       -0.38440000      -4.12400000       1.73740000
