16
Properties=species:S:1:pos:R:3 gdb_125379=T pbc="F F F"
C        0.26120000       1.49360000       0.11940000
C        0.08570000       0.00850000       0.03480000
C       -0.04950000      -0.77070000      -1.09600000
N       -0.17890000      -2.05430000      -0.67830000
N       -0.13580000      -2.17790000       0.65820000
C        0.02290000      -0.93180000       1.09670000
C        0.09640000      -0.67880000       2.57900000
C        1.34510000      -0.03000000       2.98970000
N        2.32480000       0.49680000       3.30270000
H        1.19050000       1.76050000       0.63350000
H        0.28810000       1.94250000      -0.87700000
H       -0.55860000       1.96850000       0.67130000
H       -0.05990000      -0.50850000      -2.14260000
H       -0.29360000      -2.88000000      -1.24070000
H       -0.73590000      -0.04600000       2.91220000
H        0.00280000      -1.63600000       3.10050000
