13
Properties=species:S:1:pos:R:3 gdb_25129=T pbc="F F F"
N       -0.04560000       1.36140000       0.01110000
C       -0.00790000       0.08400000       0.00330000
N        1.16270000      -0.71020000      -0.00710000
C        1.14730000      -2.07050000      -0.01520000
N        0.08320000      -2.79910000      -0.01430000
C       -1.11260000      -2.09140000      -0.00420000
C       -1.20470000      -0.73660000       0.00430000
C       -2.30540000      -2.89390000      -0.00320000
N       -3.27510000      -3.52420000      -0.00220000
H        0.88550000       1.77940000       0.00900000
H        2.05360000      -0.23380000      -0.00870000
H        2.12350000      -2.54890000      -0.02280000
H       -2.15730000      -0.22450000       0.01200000
