21
Properties=species:S:1:pos:R:3 gdb_37215=T pbc="F F F"
C       -0.07780000       1.43360000      -0.18780000
C        1.27150000       0.83880000       0.07180000
C        0.01090000      -0.05660000       0.09330000
C        0.48740000      -0.71580000      -1.16100000
C        0.11770000      -1.51660000      -2.15030000
C        1.05270000      -1.54430000      -3.34590000
C        1.53230000      -0.10980000      -3.69160000
C        2.19900000       0.66010000      -2.51010000
C        1.79490000       0.05280000      -1.15280000
H       -0.48650000       2.02750000       0.62430000
H       -0.35890000       1.78060000      -1.17870000
H        1.87880000       1.15440000       0.91130000
H       -0.50590000      -0.50640000       0.93200000
H       -0.80880000      -2.08290000      -2.16040000
H        1.92120000      -2.19100000      -3.15040000
H        0.54890000      -1.97320000      -4.21820000
H        2.21890000      -0.14620000      -4.54430000
H        0.65110000       0.44910000      -4.02530000
H        3.28880000       0.64090000      -2.61530000
H        1.90490000       1.71400000      -2.55640000
H        2.58490000      -0.62790000      -0.81010000
