18
Properties=species:S:1:pos:R:3 gdb_61864=T pbc="F F F"
C       -0.07090000       1.66180000       0.09560000
C       -0.01060000       0.14130000       0.04020000
C       -1.38630000      -0.52110000       0.07920000
C       -1.26510000      -2.03890000       0.22370000
N       -2.30640000      -2.75560000      -0.28160000
O       -0.32170000      -2.56090000       0.78940000
O        0.62540000      -0.23530000      -1.19750000
C        1.70710000      -1.04290000      -1.14920000
O        2.27880000      -1.39720000      -2.13640000
H        0.93600000       2.08450000       0.04660000
H       -0.64830000       2.05910000      -0.74460000
H       -0.53960000       1.99320000       1.02720000
H        0.57970000      -0.25280000       0.87470000
H       -1.94450000      -0.14720000       0.94620000
H       -1.95580000      -0.24770000      -0.81570000
H       -3.00260000      -2.33650000      -0.87290000
H       -2.24150000      -3.76080000      -0.25780000
H        1.98830000      -1.32550000      -0.12000000
