19
Properties=species:S:1:pos:R:3 gdb_83399=T pbc="F F F"
C        0.02520000       1.56360000      -0.13550000
C        0.09180000       0.05640000      -0.04550000
C        1.34830000      -0.76340000      -0.16920000
C        2.50420000      -0.10260000       0.57480000
O        1.70450000       0.06020000       1.77860000
C        0.61970000      -0.65760000       1.17650000
C       -0.12280000      -1.69180000       1.93960000
C        0.28200000      -1.87540000       3.38580000
O       -0.99680000      -2.34160000       1.40330000
H        0.80160000       2.03160000       0.47400000
H        0.14280000       1.90100000      -1.17050000
H       -0.94240000       1.92390000       0.22730000
H       -0.76210000      -0.47970000      -0.45210000
H        1.42450000      -1.63110000      -0.81070000
H        3.34340000      -0.78040000       0.76350000
H        2.87950000       0.85340000       0.19370000
H        0.17680000      -0.93040000       3.93010000
H       -0.33760000      -2.64710000       3.84320000
H        1.34060000      -2.14720000       3.44970000
