20
Properties=species:S:1:pos:R:3 gdb_113874=T pbc="F F F"
C        0.42340000       0.55170000      -1.08700000
C        0.10120000      -0.59130000      -0.24300000
C       -0.14990000      -1.52820000       0.47290000
C       -0.49850000      -2.63260000       1.36670000
N       -1.49420000      -3.61170000       0.86810000
C       -1.93410000      -3.58070000      -0.52270000
C       -1.11890000      -4.71610000      -0.01360000
C        0.28960000      -5.03020000      -0.48960000
O        1.12380000      -3.93030000      -0.78420000
H        1.39580000       0.42970000      -1.57690000
H       -0.32870000       0.69250000      -1.87120000
H        0.46160000       1.47640000      -0.50060000
H        0.41150000      -3.16640000       1.65830000
H       -0.92230000      -2.20800000       2.28570000
H       -3.00340000      -3.69210000      -0.68850000
H       -1.45660000      -2.85790000      -1.18220000
H       -1.64880000      -5.63950000       0.22970000
H        0.81270000      -5.58740000       0.29770000
H        0.19930000      -5.71550000      -1.35010000
H        0.65620000      -3.32090000      -1.36400000
