17
Properties=species:S:1:pos:R:3 gdb_38224=T pbc="F F F"
C       -0.01690000       1.56030000       0.14110000
N        1.48470000       1.24060000       0.06890000
C        1.13860000       0.04610000       1.00220000
C        0.02080000       0.03000000      -0.04910000
O       -1.05030000      -0.82400000      -0.33310000
C       -1.30940000      -0.81110000      -1.68790000
N       -0.71140000      -0.22390000      -2.63530000
C        0.50060000       0.58870000      -2.43310000
C        1.10760000       0.24760000      -1.07940000
H       -0.32920000       1.94590000       1.11370000
H       -0.38230000       2.19060000      -0.66860000
H        1.87920000      -0.75580000       0.97720000
H        0.90010000       0.35890000       2.02070000
H       -2.18570000      -1.42340000      -1.88870000
H        1.18770000       0.35940000      -3.25290000
H        0.23680000       1.64510000      -2.54940000
H        1.85710000      -0.54370000      -1.16240000
