19
Properties=species:S:1:pos:R:3 gdb_37704=T pbc="F F F"
C       -0.04320000       1.55360000      -0.00170000
C        1.45760000       1.84400000       0.06130000
C        2.14890000       1.46290000       1.38370000
C        1.73710000       0.06200000       1.77180000
C        0.38700000      -0.51920000       1.37300000
C       -0.00850000       0.01040000      -0.01580000
O        1.03720000      -0.29900000      -0.95230000
C        2.10070000       0.57240000      -0.60050000
C        2.80780000       0.24550000       0.72680000
H       -0.60390000       1.95760000       0.84610000
H       -0.48260000       1.93120000      -0.92980000
H        1.77070000       2.80030000      -0.35690000
H        2.57170000       2.15990000       2.09690000
H        2.11650000      -0.25640000       2.73900000
H        0.44830000      -1.61310000       1.34000000
H       -0.38520000      -0.25470000       2.10650000
H       -0.92460000      -0.45770000      -0.38250000
H        2.74640000       0.71470000      -1.46730000
H        3.81200000      -0.14490000       0.83820000
