22
Properties=species:S:1:pos:R:3 gdb_16417=T pbc="F F F"
C       -0.72420000       1.30150000       0.17060000
C        0.09840000       0.02780000      -0.04930000
C        0.96680000       0.14370000      -1.32840000
C        2.21890000      -0.76530000      -1.31010000
C        2.73310000      -0.96030000       0.12590000
C        1.64960000      -1.69780000       0.95850000
C        0.99360000      -0.30630000       1.16320000
C        2.42340000       0.29350000       0.99780000
H       -0.07190000       2.15950000       0.37270000
H       -1.32530000       1.54410000      -0.71270000
H       -1.40610000       1.19380000       1.02100000
H       -0.60400000      -0.80910000      -0.17030000
H        0.36020000      -0.04540000      -2.22020000
H        1.29850000       1.18520000      -1.41310000
H        1.99510000      -1.74930000      -1.74150000
H        2.99680000      -0.32060000      -1.94180000
H        3.74970000      -1.36150000       0.13970000
H        1.05920000      -2.47240000       0.45670000
H        2.05380000      -2.10120000       1.89160000
H        0.46650000      -0.12370000       2.10430000
H        2.97430000       0.26660000       1.94180000
H        2.53460000       1.28660000       0.55310000
