16
Properties=species:S:1:pos:R:3 gdb_54369=T pbc="F F F"
N        0.05560000       1.23370000      -0.39350000
C       -0.02430000      -0.01890000       0.15310000
O        0.91030000      -0.55040000       0.72920000
C       -1.33480000      -0.68140000       0.02340000
C       -2.73780000      -0.37720000      -0.58700000
C       -3.38640000      -1.25100000       0.47630000
C       -2.94550000      -1.86250000      -0.84450000
C       -1.55290000      -2.18140000      -0.22220000
C       -1.98920000      -1.57620000       1.08450000
H        0.96310000       1.66930000      -0.42460000
H       -0.66360000       1.58540000      -1.00130000
H       -3.14220000       0.47760000      -1.11400000
H       -4.37340000      -1.18610000       0.91290000
H       -3.53160000      -2.35470000      -1.60820000
H       -0.78960000      -2.91830000      -0.42870000
H       -1.62990000      -1.75170000       2.08860000
