16
Properties=species:S:1:pos:R:3 gdb_6333=T pbc="F F F"
C        0.01750000       1.50870000       0.05930000
C       -0.04210000       0.00780000       0.18160000
N       -0.10700000      -0.56520000       1.30860000
N       -0.01620000      -0.63950000      -1.08470000
C       -0.05470000      -1.98470000      -1.32970000
O       -0.11970000      -2.84490000      -0.46720000
C       -0.01080000      -2.39120000      -2.80570000
O       -0.05630000      -3.77870000      -2.92540000
H        0.93580000       1.82720000      -0.44800000
H       -0.83100000       1.89170000      -0.51980000
H       -0.00720000       1.94280000       1.05750000
H       -0.13970000      -1.57950000       1.20270000
H        0.03800000      -0.03820000      -1.89390000
H       -0.85970000      -1.91770000      -3.32630000
H        0.90860000      -1.98160000      -3.25600000
H       -0.10400000      -4.10930000      -2.01300000
