14
Properties=species:S:1:pos:R:3 gdb_12443=T pbc="F F F"
O        0.00900000       0.15630000       0.67120000
C       -0.01380000       1.14450000       0.00020000
O       -1.20870000       1.67410000      -0.34810000
C       -1.44580000       2.83700000      -1.16940000
C       -0.72890000       4.06790000      -0.69500000
C        0.60150000       4.08600000      -0.71380000
C        1.33790000       2.87480000      -1.20840000
O        1.15600000       1.70660000      -0.38070000
H       -1.18150000       2.60060000      -2.20820000
H       -2.52870000       2.95870000      -1.12550000
H       -1.31250000       4.89970000      -0.31480000
H        1.17270000       4.93350000      -0.34980000
H        1.05070000       2.63060000      -2.23930000
H        2.41800000       3.02600000      -1.19530000
