19
Properties=species:S:1:pos:R:3 gdb_63757=T pbc="F F F"
C       -0.03250000       1.53380000       0.01630000
C       -0.01350000       0.01430000      -0.01120000
O       -1.28460000      -0.53720000      -0.27410000
C        1.19720000      -0.60270000      -0.85160000
C        1.89980000      -0.71000000       0.47930000
C        2.90220000      -0.22080000       1.19920000
C        2.35920000       0.08220000       2.58930000
O        0.92210000       0.03510000       2.46230000
C        0.63210000      -0.65080000       1.26320000
H        0.95230000       1.93780000       0.26290000
H       -0.32550000       1.93270000      -0.96270000
H       -0.74620000       1.88560000       0.76590000
H       -1.65070000      -0.09900000      -1.05020000
H        0.89060000      -1.56320000      -1.27480000
H        1.66440000       0.01340000      -1.62310000
H        3.89500000       0.06770000       0.87790000
H        2.68620000      -0.63430000       3.35980000
H        2.65090000       1.08500000       2.92760000
H        0.11690000      -1.60240000       1.45710000
