20
Properties=species:S:1:pos:R:3 gdb_105644=T pbc="F F F"
C        0.06260000       1.52770000      -0.10530000
N        0.00540000       0.07670000       0.06630000
C       -1.32970000      -0.49460000       0.04330000
C       -2.01740000      -0.60520000      -1.36670000
N       -1.44320000      -1.96310000      -1.48120000
C       -1.31600000      -2.06790000      -0.00740000
C       -0.12610000      -2.84070000       0.52570000
C       -2.15300000       0.08530000       1.10340000
N       -2.83180000       0.52660000       1.92840000
H        1.11120000       1.83420000      -0.13640000
H       -0.43160000       1.89860000      -1.01850000
H       -0.40560000       2.01700000       0.75370000
H        0.54360000      -0.37730000      -0.66420000
H       -3.11260000      -0.56790000      -1.29810000
H       -1.67680000       0.10600000      -2.12590000
H       -2.04240000      -2.65530000      -1.91800000
H       -2.23740000      -2.43200000       0.47120000
H        0.81550000      -2.48180000       0.10540000
H       -0.07250000      -2.75950000       1.61550000
H       -0.23030000      -3.90040000       0.26870000
