18
Properties=species:S:1:pos:R:3 gdb_55142=T pbc="F F F"
N        0.64570000      -0.10320000      -0.54550000
C       -0.21940000       0.48660000       0.31750000
O       -0.00390000       1.52120000       0.92040000
C       -1.54130000      -0.26000000       0.49850000
O       -1.62560000      -1.47980000      -0.27900000
C       -1.87090000      -2.46780000       0.75050000
C       -2.95270000      -1.79230000       1.62670000
C       -1.75940000      -0.82550000       1.91380000
C       -0.85230000      -2.09720000       1.85330000
H        1.50970000       0.36120000      -0.76980000
H        0.35230000      -0.92580000      -1.04600000
H       -2.34350000       0.42580000       0.20240000
H       -1.96470000      -3.45110000       0.29320000
H       -3.83450000      -1.39690000       1.11700000
H       -3.23460000      -2.38420000       2.49880000
H       -1.73870000      -0.11130000       2.73290000
H       -0.94430000      -2.71550000       2.74720000
H        0.19370000      -1.98410000       1.56190000
