16
Properties=species:S:1:pos:R:3 gdb_45230=T pbc="F F F"
N       -0.01750000       1.32970000      -0.27010000
C       -0.00080000       0.09300000      -0.02280000
O        1.13320000      -0.67560000       0.13640000
C        0.70030000      -1.97760000       0.58240000
C        0.06040000      -1.81000000       1.98440000
C       -1.37100000      -1.60130000       1.45810000
O       -1.55070000      -2.84170000       0.70370000
C       -0.62380000      -2.24170000      -0.22080000
C       -1.16990000      -0.83330000       0.09420000
H        0.93500000       1.69740000      -0.32160000
H        1.53010000      -2.67130000       0.47520000
H        0.10340000      -2.71210000       2.59690000
H        0.49740000      -0.96730000       2.52350000
H       -2.18190000      -1.36820000       2.14510000
H       -0.57830000      -2.69740000      -1.20810000
H       -2.08890000      -0.51770000      -0.38910000
