21
Properties=species:S:1:pos:R:3 gdb_63907=T pbc="F F F"
C        0.14010000       1.50970000      -0.01160000
C       -0.07380000      -0.01460000       0.00140000
C       -1.58970000      -0.31380000       0.06700000
C        0.53610000      -0.62100000      -1.28910000
C        0.78200000      -2.12220000      -1.21230000
O        2.12470000      -2.52220000      -0.90650000
C        1.10220000      -2.71990000       0.09090000
C        1.12010000      -1.83000000       1.27970000
C        0.58710000      -0.60910000       1.23270000
H        1.20590000       1.76000000      -0.00230000
H       -0.30370000       1.95560000      -0.90850000
H       -0.32530000       1.98140000       0.86100000
H       -2.11610000       0.17320000      -0.76190000
H       -1.78070000      -1.38980000       0.01200000
H       -2.02380000       0.05310000       1.00310000
H       -0.11590000      -0.38920000      -2.13870000
H        1.50240000      -0.14540000      -1.48770000
H        0.30380000      -2.74370000      -1.96850000
H        0.86960000      -3.76940000       0.27110000
H        1.56610000      -2.20970000       2.19470000
H        0.58400000       0.01330000       2.12580000
