17
Properties=species:S:1:pos:R:3 gdb_7380=T pbc="F F F"
C        0.00450000       1.40300000      -0.03680000
O        0.05120000      -0.00640000       0.02670000
C       -1.21490000      -0.60830000      -0.13630000
C       -1.03630000      -2.12040000       0.01280000
N       -0.46740000      -2.42600000       1.33270000
H       -2.22180000      -3.03160000       1.68870000
H        0.10380000      -3.26370000       1.29170000
H        0.14280000      -1.66340000       1.61170000
C       -2.42310000      -2.77680000      -0.13290000
O       -3.00680000      -2.84250000      -1.18170000
O       -2.92250000      -3.22530000       1.02430000
H        1.02350000       1.76880000       0.10780000
H       -0.36530000       1.75100000      -1.01250000
H       -0.64250000       1.82320000       0.74830000
H       -1.91710000      -0.23640000       0.62940000
H       -1.64330000      -0.39350000      -1.12460000
H       -0.41620000      -2.47150000      -0.82040000
