18
Properties=species:S:1:pos:R:3 gdb_44545=T pbc="F F F"
O        0.04870000       0.46580000       1.01980000
C        0.00510000       1.39080000       0.25290000
C       -1.28430000       2.06680000      -0.25530000
C       -0.84430000       3.37990000      -0.90470000
C       -0.69820000       4.63210000      -0.03370000
C        0.17640000       4.41650000       1.13260000
N        0.82080000       4.65830000      -0.17210000
C        0.71820000       3.38450000      -0.98800000
C        1.22730000       2.08010000      -0.38420000
H       -1.74540000       1.38830000      -0.98370000
H       -1.99350000       2.17830000       0.56940000
H       -1.34400000       3.58680000      -1.85060000
H       -1.28810000       5.53550000      -0.15180000
H        0.30960000       5.25330000       1.81170000
H        0.24840000       3.44840000       1.62090000
H        1.12820000       3.59050000      -1.97640000
H        2.02750000       2.20210000       0.35060000
H        1.61200000       1.41200000      -1.16470000
