20
Properties=species:S:1:pos:R:3 gdb_113765=T pbc="F F F"
C       -0.36630000       1.62740000      -0.85060000
C       -0.53440000       0.12210000      -0.66040000
N        0.53270000      -0.59230000      -1.35680000
C        1.72750000      -0.95530000      -0.61120000
C        0.77670000      -2.00420000      -1.09300000
C       -0.05270000      -2.81300000      -0.10420000
O       -1.25290000      -3.24530000      -0.68430000
C        0.75850000      -4.00050000       0.37890000
O        0.37640000      -5.13490000       0.22100000
H        0.57850000       1.97400000      -0.41870000
H       -0.36470000       1.88200000      -1.91390000
H       -1.18110000       2.16950000      -0.36120000
H       -0.56640000      -0.10560000       0.41870000
H       -1.48590000      -0.21380000      -1.08640000
H        2.68140000      -0.80090000      -1.10820000
H        1.73790000      -0.75090000       0.46090000
H        1.02500000      -2.57320000      -1.98800000
H       -0.25190000      -2.19540000       0.78870000
H       -1.24210000      -4.21370000      -0.61820000
H        1.72120000      -3.76850000       0.87600000
