17
Properties=species:S:1:pos:R:3 gdb_37417=T pbc="F F F"
C       -0.04690000       1.56160000       0.06040000
C        1.48250000       1.36910000      -0.00170000
O        1.75570000       0.76190000       1.26970000
C        0.87340000      -0.39730000       1.19580000
C        1.79170000      -1.49090000       0.65620000
O        1.27760000      -2.25400000      -0.43860000
C        2.06960000      -1.08170000      -0.72440000
C        1.21740000       0.13960000      -0.96740000
C       -0.01500000       0.01460000      -0.00830000
H       -0.44050000       2.04900000       0.95450000
H       -0.47270000       1.99690000      -0.84630000
H        2.20320000       2.15970000      -0.20320000
H        0.39270000      -0.56270000       2.16000000
H        2.51510000      -1.98310000       1.29810000
H        3.01740000      -1.26090000      -1.22150000
H        0.99810000       0.42090000      -1.99640000
H       -0.87760000      -0.60380000      -0.23830000
