19
Properties=species:S:1:pos:R:3 gdb_127471=T pbc="F F F"
C       -0.05310000       1.39380000      -0.06290000
N       -0.02340000      -0.04460000       0.01000000
N        0.06210000      -0.78930000      -1.13270000
C        0.06400000      -2.04620000      -0.70680000
N        0.04310000      -3.11130000      -1.61280000
C        0.02400000      -2.14570000       0.70790000
C        0.02050000      -3.38430000       1.54570000
C       -0.02330000      -0.82250000       1.12180000
N       -0.13900000      -0.24820000       2.39800000
H        0.95310000       1.82600000      -0.14130000
H       -0.62420000       1.68570000      -0.94610000
H       -0.54000000       1.78210000       0.83450000
H        0.28570000      -2.79810000      -2.54490000
H        0.64510000      -3.87700000      -1.33720000
H        0.83800000      -4.06590000       1.27630000
H        0.15240000      -3.14810000       2.60780000
H       -0.91220000      -3.95470000       1.45210000
H       -0.32830000      -0.95310000       3.09910000
H        0.68780000       0.26900000       2.67890000
