16
Properties=species:S:1:pos:R:3 gdb_128185=T pbc="F F F"
C       -0.05760000       1.46480000       0.07880000
N       -0.05960000       0.02340000      -0.11070000
C       -1.17880000      -0.75270000      -0.04290000
C       -1.15660000      -2.11880000       0.00990000
C       -2.38750000      -2.85110000       0.03370000
N       -2.48660000      -4.12900000       0.07980000
N       -3.49420000      -1.96620000       0.00250000
N       -3.48010000      -0.63290000      -0.03450000
N       -2.37170000      -0.01810000      -0.05750000
H        0.93600000       1.83980000      -0.17640000
H       -0.79000000       1.93390000      -0.57890000
H       -0.29070000       1.75990000       1.11050000
H        0.81230000      -0.45540000       0.04260000
H       -0.23280000      -2.68370000       0.03050000
H       -3.45980000      -4.43560000       0.09140000
H       -4.43040000      -2.34590000       0.02070000
