21
Properties=species:S:1:pos:R:3 gdb_123205=T pbc="F F F"
C       -0.04530000       1.36480000      -0.04390000
O       -0.00580000      -0.04130000      -0.01030000
C        0.67960000      -0.54540000       1.11290000
C        0.66740000      -2.06670000       1.03880000
C        1.36330000      -2.71700000       2.23230000
N        1.36380000      -4.17180000       2.09880000
C        1.97240000      -4.83740000       3.24290000
C        1.91270000      -6.29500000       3.10230000
N        1.84610000      -7.44390000       3.00580000
H        0.96510000       1.80210000      -0.08620000
H       -0.59300000       1.65550000      -0.94350000
H       -0.56090000       1.78130000       0.83630000
H        1.71810000      -0.16950000       1.13170000
H        0.19810000      -0.19870000       2.04480000
H       -0.37600000      -2.40220000       0.98570000
H        1.15330000      -2.38940000       0.11270000
H        2.41010000      -2.38660000       2.27860000
H        0.88930000      -2.37930000       3.17430000
H        0.41280000      -4.50710000       1.98010000
H        3.02720000      -4.54040000       3.30370000
H        1.51940000      -4.57190000       4.21670000
