15
Properties=species:S:1:pos:R:3 gdb_80204=T pbc="F F F"
C       -0.05210000       1.58150000       0.03680000
C        0.06360000       0.07480000       0.10050000
N        1.22500000      -0.72080000      -0.28400000
C        2.45910000       0.05780000       0.09220000
C        2.05200000       0.02080000       1.57290000
O        2.59120000       0.25460000       2.60890000
C        0.76360000      -0.69210000       1.19610000
C        0.16720000      -1.78480000       1.89360000
N       -0.31230000      -2.65530000       2.48570000
H        0.78740000       2.11050000       0.48960000
H       -0.14430000       1.90250000      -1.00600000
H       -0.95990000       1.89110000       0.56250000
H       -0.84420000      -0.43510000      -0.21780000
H        3.34850000      -0.55500000      -0.07650000
H        2.57760000       1.02120000      -0.40690000
