18
Properties=species:S:1:pos:R:3 gdb_98766=T pbc="F F F"
C       -0.20770000       1.42000000       0.14660000
N       -0.22150000      -0.00540000       0.41090000
C        0.84570000      -0.65840000       0.94730000
O        1.90000000      -0.12460000       1.23650000
C        0.65850000      -2.16550000       1.14730000
O        0.72440000      -2.54820000       2.55430000
C       -0.46190000      -3.32920000       2.40260000
C       -1.63810000      -2.46640000       2.09570000
C       -0.68420000      -2.87610000       0.97830000
H        0.79780000       1.78030000       0.36770000
H       -0.44510000       1.62950000      -0.90190000
H       -0.92370000       1.95420000       0.78150000
H       -1.06820000      -0.52760000       0.25730000
H        1.46490000      -2.66970000       0.60200000
H       -0.49150000      -4.30600000       2.86990000
H       -2.59710000      -2.97420000       2.06290000
H       -1.66240000      -1.44800000       2.47180000
H       -0.99820000      -3.43300000       0.10620000
