17
Properties=species:S:1:pos:R:3 gdb_25752=T pbc="F F F"
C        0.06040000       1.50780000       0.08430000
C        0.01850000       0.02020000      -0.03660000
C       -0.06540000      -0.81280000      -1.14680000
C       -0.05960000      -2.16420000      -0.66650000
C        0.02840000      -2.11770000       0.69760000
N        0.07950000      -0.79050000       1.06230000
C       -0.14060000      -0.34980000      -2.54630000
N       -0.01670000      -1.33910000      -3.49940000
O       -0.32830000       0.81330000      -2.87530000
H        1.00430000       1.85050000       0.52650000
H       -0.04680000       1.94450000      -0.90750000
H       -0.75340000       1.87940000       0.71930000
H       -0.15280000      -3.06350000      -1.25590000
H        0.04960000      -2.90030000       1.43840000
H        0.14870000      -0.45430000       2.00800000
H        0.45820000      -2.19570000      -3.26860000
H        0.09220000      -1.00500000      -4.44450000
