19
Properties=species:S:1:pos:R:3 gdb_83173=T pbc="F F F"
C       -0.56320000       1.38450000       0.07770000
C       -0.09950000      -0.04960000      -0.01700000
C        0.72420000      -0.54470000      -1.20270000
N        1.24970000       0.41520000      -2.13340000
C        2.70840000       0.47180000      -2.05880000
C        3.11030000       0.97000000      -0.68770000
N        4.11740000       1.71390000      -0.51840000
O        2.30260000       0.59910000       0.35420000
C        1.35080000      -0.42430000       0.15860000
H        0.11660000       2.04930000      -0.45640000
H       -1.55850000       1.49390000      -0.36530000
H       -0.62030000       1.70970000       1.12130000
H       -0.78920000      -0.78610000       0.38820000
H        0.53330000      -1.55360000      -1.57070000
H        0.92360000       0.25350000      -3.07630000
H        3.19350000      -0.50490000      -2.23860000
H        3.10280000       1.17850000      -2.78980000
H        4.23570000       1.92510000       0.47490000
H        1.60680000      -1.31810000       0.71940000
