15
Properties=species:S:1:pos:R:3 gdb_86930=T pbc="F F F"
O        0.13730000       1.47900000      -0.08290000
C        0.08510000       0.09190000      -0.03420000
C       -1.27350000      -0.68530000       0.15020000
C       -0.78570000      -1.77030000      -0.84190000
O       -1.75450000      -2.20360000      -1.77660000
C       -1.31470000      -2.98600000      -2.79480000
O       -2.04660000      -3.37820000      -3.64940000
C        0.22180000      -0.70600000      -1.33940000
O        0.60820000      -0.41890000      -2.43510000
H       -0.11380000       1.76200000      -0.97030000
H        0.80620000      -0.24800000       0.71810000
H       -1.51900000      -1.00940000       1.16040000
H       -2.10660000      -0.12870000      -0.28460000
H       -0.30430000      -2.61660000      -0.33910000
H       -0.23580000      -3.21430000      -2.73090000
