25
Properties=species:S:1:pos:R:3 gdb_93851=T pbc="F F F"
C       -0.77020000       1.20770000      -0.04940000
C        0.11220000      -0.03920000      -0.05810000
C        1.26770000       0.01930000      -1.07690000
O        2.34350000      -0.74330000      -0.53560000
C        1.91150000      -1.37180000       0.67170000
C        3.13690000      -1.69070000       1.51230000
C        0.84190000      -0.41820000       1.26480000
C        1.48950000       0.80270000       1.93930000
C       -0.08710000      -1.13270000       2.25080000
H       -0.19110000       2.11530000       0.14610000
H       -1.26410000       1.33610000      -1.01870000
H       -1.55670000       1.13830000       0.70950000
H       -0.52240000      -0.89740000      -0.31650000
H        0.97160000      -0.38540000      -2.05430000
H        1.61520000       1.04950000      -1.23680000
H        1.40360000      -2.32250000       0.42560000
H        3.70710000      -0.78740000       1.74230000
H        2.84820000      -2.17600000       2.45020000
H        3.79370000      -2.37360000       0.96610000
H        2.20030000       1.30370000       1.27540000
H        0.73260000       1.53300000       2.24000000
H        2.03000000       0.50740000       2.84360000
H        0.45500000      -1.45400000       3.14710000
H       -0.89580000      -0.47170000       2.58110000
H       -0.54420000      -2.02000000       1.79900000
