20
Properties=species:S:1:pos:R:3 gdb_99116=T pbc="F F F"
C       -0.81800000      -0.40200000       0.81540000
O       -0.25140000      -1.56850000       0.20200000
C        1.04800000      -1.45910000      -0.15810000
O        1.71140000      -0.47250000       0.03620000
C        1.50810000      -2.71540000      -0.87160000
C        1.21170000      -2.62320000      -2.36990000
C        2.08270000      -1.65500000      -3.14320000
C        0.66490000      -3.83340000      -3.03700000
N       -0.20160000      -2.66600000      -2.78760000
H       -0.26980000      -0.14260000       1.72420000
H       -0.78370000       0.44760000       0.12900000
H       -1.84990000      -0.66170000       1.05120000
H        2.58370000      -2.82000000      -0.70650000
H        0.99640000      -3.58020000      -0.44140000
H        3.12650000      -1.98830000      -3.14600000
H        1.73560000      -1.58120000      -4.17620000
H        2.05300000      -0.65640000      -2.69630000
H        0.88810000      -4.01900000      -4.08440000
H        0.52170000      -4.73140000      -2.44080000
H       -0.79620000      -2.83360000      -1.97930000
