14
Properties=species:S:1:pos:R:3 gdb_9819=T pbc="F F F"
C       -0.32970000       1.46450000       0.04920000
C       -0.04680000      -0.01490000      -0.05010000
C        0.94840000      -0.56030000      -0.97940000
O        1.23510000      -0.46480000       0.42460000
C       -1.12100000      -0.99120000       0.39960000
O       -1.51930000      -1.91150000      -0.27450000
C       -1.68990000      -0.86340000       1.82240000
O       -1.41620000       0.01450000       2.59560000
H        0.54020000       2.02760000      -0.29810000
H       -1.18840000       1.73470000      -0.57520000
H       -0.54630000       1.74650000       1.08080000
H        0.82590000      -1.56870000      -1.36590000
H        1.50810000       0.12830000      -1.60940000
H       -2.39560000      -1.68860000       2.05550000
