18
Properties=species:S:1:pos:R:3 gdb_44072=T pbc="F F F"
O       -0.05790000       0.01100000       0.03850000
C        0.03100000       1.21320000       0.08950000
N       -0.96800000       2.15860000       0.21400000
C       -0.28190000       3.47030000       0.04920000
C       -1.07700000       4.36820000      -0.93840000
C       -0.41330000       3.48500000      -2.08850000
C        0.72910000       3.20400000      -1.04870000
C        1.25580000       2.13270000      -0.00510000
C        0.87510000       3.26260000       1.08310000
H       -1.92310000       1.98530000      -0.05480000
H       -2.16790000       4.38820000      -0.85690000
H       -0.70010000       5.39280000      -0.96400000
H       -1.02800000       2.62260000      -2.34660000
H       -0.11680000       4.00300000      -3.00210000
H        1.45240000       4.02140000      -1.11320000
H        2.23080000       1.65190000      -0.04390000
H        1.61120000       4.06780000       1.11240000
H        0.61450000       2.91850000       2.08680000
