18
Properties=species:S:1:pos:R:3 gdb_67569=T pbc="F F F"
C       -0.00310000       1.49030000      -0.03160000
C        0.07690000      -0.01470000       0.03120000
C        0.42000000      -0.74110000      -1.26890000
O        1.57810000      -1.58600000      -1.16390000
C        0.28040000      -2.13820000      -0.87780000
C       -0.11960000      -1.97680000       0.57530000
C        0.69470000      -0.82400000       1.21580000
C       -0.58540000      -0.51030000       2.00090000
N       -1.15780000      -0.81020000       0.61420000
H        0.96250000       1.90100000      -0.34570000
H       -0.75350000       1.79780000      -0.76800000
H       -0.26650000       1.94780000       0.92440000
H        0.20100000      -0.33210000      -2.24950000
H       -0.06460000      -2.94150000      -1.51810000
H       -0.40100000      -2.85060000       1.16320000
H        1.73670000      -0.83910000       1.54770000
H       -0.90210000      -1.23000000       2.76100000
H       -0.76020000       0.50880000       2.35000000
