16
Properties=species:S:1:pos:R:3 gdb_23584=T pbc="F F F"
O       -0.13980000       1.38780000       0.06610000
N        0.05090000      -0.00890000      -0.01260000
C       -1.05640000      -0.61680000      -0.06970000
C       -2.54060000      -0.30830000       0.00540000
C       -2.99800000      -0.87240000      -1.36640000
C       -2.60160000      -2.32340000      -1.01530000
O       -3.50050000      -2.59910000       0.09890000
C       -2.65870000      -1.70220000       0.81870000
C       -1.39390000      -2.07460000      -0.00870000
H        0.76650000       1.70990000       0.11960000
H       -2.92900000       0.64040000       0.36070000
H       -4.07340000      -0.80290000      -1.54070000
H       -2.45000000      -0.43630000      -2.20440000
H       -2.59480000      -3.09800000      -1.77990000
H       -2.75410000      -1.70110000       1.90190000
H       -0.70670000      -2.88270000       0.22290000
