15
Properties=species:S:1:pos:R:3 gdb_2514=T pbc="F F F"
C       -0.06360000       1.56880000       0.00060000
C        0.03380000       0.04190000       0.00350000
C        0.71470000      -0.52940000      -1.27440000
C        2.19370000      -0.13140000      -1.27420000
O        2.65940000       0.74390000      -1.95190000
C        0.60720000      -1.98160000      -1.33860000
C        0.55820000      -3.18240000      -1.36850000
H        0.92030000       2.04020000      -0.07920000
H       -0.66700000       1.92290000      -0.84170000
H       -0.53370000       1.92330000       0.92240000
H        0.58930000      -0.30890000       0.88170000
H       -0.96300000      -0.40430000       0.07400000
H        0.25860000      -0.07090000      -2.15950000
H        2.81300000      -0.71400000      -0.55590000
H        0.49930000      -4.24210000      -1.41020000
