20
Properties=species:S:1:pos:R:3 gdb_74334=T pbc="F F F"
C        0.12580000       1.52630000       0.03160000
C        0.04750000       0.03510000      -0.00580000
C       -0.97470000      -0.76470000       0.28450000
C       -0.59500000      -2.21030000       0.09100000
O        0.79880000      -2.16740000      -0.23560000
C        1.21390000      -0.81890000      -0.43780000
C       -0.82420000      -3.09190000       1.31030000
C        0.06540000      -4.24260000       1.58340000
N        0.10470000      -3.03970000       2.44230000
H        0.91420000       1.86430000       0.71560000
H        0.37250000       1.93550000      -0.95630000
H       -0.81880000       1.96920000       0.35630000
H       -1.96060000      -0.45740000       0.61090000
H       -1.15420000      -2.65290000      -0.75320000
H        1.46850000      -0.65320000      -1.49840000
H        2.12600000      -0.62570000       0.14610000
H       -1.87330000      -3.16100000       1.59460000
H       -0.32880000      -5.13510000       2.06110000
H        0.89210000      -4.40510000       0.89920000
H        0.90750000      -2.48110000       2.15630000
