19
Properties=species:S:1:pos:R:3 gdb_39457=T pbc="F F F"
C        0.11520000       1.60110000       0.00570000
C        1.12110000       0.60820000      -0.45500000
C        2.47220000       0.44760000       0.21100000
N        3.00380000      -0.88610000      -0.07370000
C        2.65230000      -1.84590000       0.66270000
O        1.88000000      -1.78850000       1.79360000
C        0.44770000      -1.75010000       1.66340000
C       -0.11500000      -0.33610000       1.54840000
N       -0.12870000       0.16810000       0.17890000
H        0.35580000       2.17900000       0.89780000
H       -0.52230000       2.11720000      -0.70730000
H        1.14790000       0.37120000      -1.51730000
H        3.16630000       1.17810000      -0.21740000
H        2.40300000       0.64110000       1.28790000
H        3.03720000      -2.84770000       0.46010000
H        0.12600000      -2.35740000       0.80930000
H        0.07270000      -2.21300000       2.58050000
H       -1.15890000      -0.35720000       1.88650000
H        0.43230000       0.30690000       2.25720000
