19
Properties=species:S:1:pos:R:3 gdb_39546=T pbc="F F F"
C       -0.00310000       1.58230000       0.04740000
C        1.33690000       2.26030000      -0.07790000
C        2.47900000       1.58930000      -0.22890000
C        2.50160000       0.08940000      -0.29020000
C        2.23130000      -0.72340000       0.98790000
C        0.70990000      -0.72040000       1.18550000
C        1.36670000      -1.71550000       0.25320000
C        1.21590000      -0.59790000      -0.84670000
C        0.09150000       0.05260000       0.01420000
H       -0.49020000       1.89450000       0.98310000
H       -0.66830000       1.94170000      -0.75250000
H        1.34010000       3.34770000      -0.04960000
H        3.42140000       2.12520000      -0.31030000
H        3.39440000      -0.29060000      -0.79510000
H        2.90260000      -0.90300000       1.81850000
H        0.27540000      -0.91080000       2.15930000
H        1.35650000      -2.79480000       0.22510000
H        1.09190000      -0.74330000      -1.91790000
H       -0.87780000      -0.39030000      -0.23660000
