18
Properties=species:S:1:pos:R:3 gdb_64172=T pbc="F F F"
C       -0.21780000       1.52350000       0.19310000
C        0.00390000       0.02870000       0.01410000
C       -1.24390000      -0.69180000      -0.47000000
O        1.12520000      -0.22800000      -0.88150000
C        1.93320000      -0.78820000       0.15860000
C        0.79210000      -0.64660000       1.20240000
O        1.01590000       0.23590000       2.27530000
C        0.25330000      -1.91970000       1.69250000
N       -0.13630000      -2.92400000       2.11230000
H        0.68920000       2.02180000       0.53670000
H       -0.51070000       1.95000000      -0.77100000
H       -1.01380000       1.71740000       0.91750000
H       -1.56010000      -0.26310000      -1.42550000
H       -1.05570000      -1.75750000      -0.61800000
H       -2.06190000      -0.57840000       0.24820000
H        2.26400000      -1.80750000      -0.06800000
H        2.79630000      -0.16110000       0.41430000
H        1.48510000      -0.23360000       2.97430000
