17
Properties=species:S:1:pos:R:3 gdb_11222=T pbc="F F F"
C       -0.04580000       1.55840000       0.07980000
C        0.00670000       0.06440000       0.04030000
C       -0.28490000      -0.72280000      -0.99550000
C       -0.05010000      -2.19200000      -0.68580000
C        0.09780000      -2.19790000       0.86800000
C        0.47520000      -0.74450000       1.23260000
C       -1.11280000      -3.07680000      -1.16690000
N       -1.95370000      -3.77320000      -1.54680000
H        0.94120000       1.98070000       0.30710000
H       -0.38590000       1.97820000      -0.87020000
H       -0.72190000       1.90560000       0.87100000
H       -0.60990000      -0.39030000      -1.97410000
H        0.88140000      -2.53120000      -1.16250000
H       -0.86680000      -2.45450000       1.31270000
H        0.82500000      -2.93800000       1.20740000
H        1.55930000      -0.62380000       1.36920000
H        0.01140000      -0.41820000       2.17050000
