12
Properties=species:S:1:pos:R:3 gdb_130653=T pbc="F F F"
O       -0.02060000       0.04010000       0.00450000
C       -0.05580000       1.22290000       0.01050000
C       -1.28530000       2.16050000       0.03270000
N       -0.62840000       3.44050000       0.02950000
N       -0.99730000       4.74590000       0.04120000
N        0.11580000       5.42320000       0.02910000
C        1.20640000       4.58970000       0.00900000
C        0.71030000       3.31560000       0.00980000
O        1.10180000       2.01130000      -0.00220000
H       -1.90670000       1.98980000      -0.85070000
H       -1.88110000       1.98120000       0.93200000
H        2.21610000       4.95890000      -0.00360000
