15
Properties=species:S:1:pos:R:3 gdb_46449=T pbc="F F F"
O        0.00890000       0.02310000       0.16210000
C        0.00470000       1.21560000       0.00410000
C       -1.25050000       2.09070000      -0.19470000
N       -0.81320000       3.39800000      -0.71380000
C        0.63990000       3.46410000      -0.55560000
C        1.15000000       3.33310000       0.84540000
C        1.19730000       2.11700000      -0.07050000
C        1.34680000       4.26870000      -1.51150000
N        1.90690000       4.91080000      -2.29340000
H       -1.94510000       1.59450000      -0.87590000
H       -1.76580000       2.19510000       0.76870000
H       -1.02970000       3.46300000      -1.70200000
H        2.10690000       3.78570000       1.07400000
H        0.42010000       3.36840000       1.64690000
H        2.15310000       1.71020000      -0.37220000
