17
Properties=species:S:1:pos:R:3 gdb_126733=T pbc="F F F"
C       -0.00330000       1.58040000       0.10020000
C        0.00270000       0.06100000      -0.06110000
N       -1.34660000      -0.50850000      -0.07180000
C       -1.99190000      -0.85290000      -1.21930000
C       -3.26610000      -1.32200000      -1.21620000
C       -3.97960000      -1.46050000       0.04030000
O       -5.12720000      -1.87010000       0.17390000
C       -3.15090000      -1.04470000       1.18730000
N       -1.93220000      -0.59960000       1.13720000
H        1.02310000       1.95720000       0.13750000
H       -0.51790000       2.06460000      -0.73530000
H       -0.50900000       1.85900000       1.02800000
H        0.48990000      -0.23430000      -0.99430000
H        0.54150000      -0.41080000       0.76410000
H       -1.41120000      -0.72980000      -2.12690000
H       -3.75430000      -1.59800000      -2.14240000
H       -3.58880000      -1.11350000       2.17920000
