17
Properties=species:S:1:pos:R:3 gdb_44846=T pbc="F F F"
N       -0.05710000       1.24490000       0.01500000
C       -0.03530000      -0.01280000       0.01130000
O        1.09710000      -0.80640000       0.02800000
C        0.61420000      -2.18560000      -0.01920000
C       -0.59490000      -2.04220000      -0.95320000
C       -1.21700000      -0.97150000      -0.02760000
N       -1.21950000      -1.54170000       1.36020000
C       -1.36710000      -3.00230000       1.46250000
C       -0.00940000      -2.41010000       1.35460000
H        0.89290000       1.62170000       0.04680000
H        1.44200000      -2.82690000      -0.31470000
H       -0.30370000      -1.63840000      -1.92410000
H       -1.18330000      -2.94490000      -1.10470000
H       -2.16510000      -0.51200000      -0.29340000
H       -1.70520000      -3.31930000       2.44450000
H       -1.78820000      -3.57940000       0.64670000
H        0.64650000      -2.34550000       2.21720000
