16
Properties=species:S:1:pos:R:3 gdb_32503=T pbc="F F F"
C       -0.04250000       1.33240000      -0.03440000
O        0.00260000      -0.07960000      -0.00330000
C        0.63820000      -0.61690000       1.06190000
C        1.25070000       0.00790000       2.12510000
N        1.74940000      -0.99090000       2.94260000
C        1.46720000      -2.21430000       2.42230000
C        0.76830000      -2.03610000       1.23830000
C        0.28230000      -3.04480000       0.37840000
C       -0.13430000      -3.90270000      -0.35790000
H        0.96820000       1.76300000      -0.06400000
H       -0.58080000       1.61020000      -0.94190000
H       -0.57230000       1.73370000       0.84080000
H        1.37540000       1.04740000       2.37070000
H        2.24900000      -0.83100000       3.79850000
H        1.77100000      -3.12540000       2.91020000
H       -0.50340000      -4.65500000      -1.00880000
