18
Properties=species:S:1:pos:R:3 gdb_45058=T pbc="F F F"
O        0.05400000      -0.00470000       0.13910000
C        0.03980000       1.20410000       0.03870000
N       -1.08040000       1.99980000      -0.04880000
C       -0.80440000       3.40730000      -0.01500000
C       -0.14190000       3.96040000       1.22460000
C        0.70130000       3.53440000       0.03630000
C        1.23420000       2.13060000       0.01300000
C        2.49070000       1.66230000       0.71190000
C        2.44460000       1.69810000      -0.78550000
H       -1.98820000       1.61000000       0.15020000
H       -1.41990000       4.03640000      -0.64790000
H       -0.22870000       5.02650000       1.40650000
H       -0.13480000       3.34080000       2.11550000
H        1.20510000       4.30060000      -0.54060000
H        3.07750000       2.41160000       1.23150000
H        2.43210000       0.69180000       1.19250000
H        2.36580000       0.75380000      -1.31240000
H        2.99880000       2.47430000      -1.30280000
