20
Properties=species:S:1:pos:R:3 gdb_5875=T pbc="F F F"
C       -0.13550000       1.56350000       0.13040000
C        0.02750000       0.03740000       0.06320000
C        0.78680000      -0.49070000       1.28980000
C       -1.34160000      -0.63920000      -0.04640000
O        0.69020000      -0.35290000      -1.15570000
C        1.99690000       0.10360000      -1.38580000
C        2.44300000      -0.45410000      -2.72830000
O        3.52250000      -0.24300000      -3.21320000
H        0.82410000       2.07540000       0.24980000
H       -0.61650000       1.93560000      -0.77910000
H       -0.75970000       1.83880000       0.98570000
H        0.20550000      -0.31110000       2.19910000
H        0.95640000      -1.56760000       1.19830000
H        1.75440000       0.00320000       1.41940000
H       -1.86770000      -0.28640000      -0.93770000
H       -1.22260000      -1.72310000      -0.12690000
H       -1.95510000      -0.41900000       0.83180000
H        2.07090000       1.20110000      -1.43340000
H        2.71510000      -0.23460000      -0.62290000
H        1.67150000      -1.08200000      -3.22610000
