18
Properties=species:S:1:pos:R:3 gdb_25920=T pbc="F F F"
C       -0.05080000       1.52770000      -0.02500000
C        0.06670000       0.01520000      -0.01690000
O        1.13740000      -0.54640000      -0.03270000
N       -1.14210000      -0.70010000       0.00750000
C       -2.42080000      -0.13460000       0.02460000
C       -3.33580000      -1.14030000       0.04590000
C       -2.61230000      -2.37570000       0.04190000
C       -1.27350000      -2.10150000       0.01820000
C       -0.12770000      -3.05780000       0.00540000
H        0.95910000       1.93510000      -0.04350000
H       -0.60080000       1.87880000      -0.90310000
H       -0.57330000       1.89060000       0.86500000
H       -2.55340000       0.93240000       0.01990000
H       -4.40800000      -1.01790000       0.06270000
H       -3.03550000      -3.36910000       0.05510000
H        0.50150000      -2.93840000      -0.88110000
H        0.53000000      -2.92750000       0.86940000
H       -0.52720000      -4.07560000       0.01830000
