14
Properties=species:S:1:pos:R:3 gdb_625=T pbc="F F F"
O       -0.04790000       1.26790000      -0.49290000
C        0.00230000      -0.00660000       0.14070000
C       -1.38510000      -0.59030000       0.12380000
C       -1.90170000      -1.25170000      -1.13960000
C       -1.58700000      -2.07770000       0.08050000
O       -0.43960000      -2.88150000       0.10120000
H        0.82860000       1.65930000      -0.43320000
H        0.69280000      -0.68820000      -0.37350000
H        0.34960000       0.08620000       1.18220000
H       -2.10930000      -0.02760000       0.70560000
H       -2.93690000      -1.10600000      -1.42770000
H       -1.20220000      -1.31830000      -1.96660000
H       -2.42560000      -2.47860000       0.64990000
H       -0.58520000      -3.61670000      -0.50280000
