19
Properties=species:S:1:pos:R:3 gdb_52947=T pbc="F F F"
C       -0.00190000       1.50330000       0.04970000
C       -0.00060000       0.04820000       0.03300000
C       -0.00010000      -1.15820000       0.02190000
C        0.00940000      -2.57740000      -0.00770000
C       -0.28490000      -3.46820000       1.20150000
C       -1.12280000      -3.61990000      -0.02410000
C       -2.60760000      -3.52190000      -0.12580000
O       -0.43690000      -4.43530000      -0.98020000
C        0.63260000      -3.46180000      -1.08940000
H        0.81450000       1.90470000      -0.56120000
H       -0.93950000       1.91100000      -0.34530000
H        0.12700000       1.89190000       1.06630000
H        0.41600000      -4.25220000       1.47760000
H       -0.74550000      -2.93970000       2.02940000
H       -2.98650000      -2.77000000       0.57190000
H       -2.91120000      -3.24610000      -1.13990000
H       -3.07260000      -4.48290000       0.12220000
H        0.63090000      -2.99320000      -2.07890000
H        1.61750000      -3.89570000      -0.87940000
