15
Properties=species:S:1:pos:R:3 gdb_27389=T pbc="F F F"
N       -0.01220000       1.37310000       0.13250000
C        0.02340000       0.01500000       0.04180000
N       -1.10340000      -0.68180000       0.02720000
H       -2.00780000      -0.23270000       0.06490000
C       -1.18620000      -2.12260000      -0.00340000
N       -2.41120000      -2.52320000      -0.00170000
C        0.06550000      -2.78530000      -0.02960000
C        1.30100000      -2.13410000      -0.02230000
O        2.45380000      -2.53090000      -0.03830000
N        1.16940000      -0.64300000       0.01020000
H        0.82230000       1.88200000      -0.10990000
H       -0.87540000       1.84110000      -0.09320000
H       -2.44390000      -3.54010000      -0.02390000
H        0.07610000      -3.86600000      -0.05460000
H        2.05610000      -0.16120000       0.03910000
