14
Properties=species:S:1:pos:R:3 gdb_49002=T pbc="F F F"
N        0.03870000       1.09120000      -0.52210000
C       -0.00830000      -0.07120000      -0.07030000
O        0.99300000      -0.90720000       0.41900000
C        0.06590000      -1.99490000       0.63340000
C       -0.63790000      -1.92110000       2.00210000
O       -1.65920000      -1.03220000       1.48950000
C       -1.11630000      -1.08650000       0.16200000
C        0.47090000      -3.30080000       0.02440000
O        1.43280000      -3.45310000      -0.67860000
H        0.98500000       1.47550000      -0.50130000
H       -1.07620000      -2.86900000       2.33580000
H       -0.03790000      -1.47480000       2.80010000
H       -1.85370000      -1.28170000      -0.61610000
H       -0.22200000      -4.13610000       0.27260000
