23
Properties=species:S:1:pos:R:3 gdb_115620=T pbc="F F F"
C        0.00380000       1.56020000      -0.05470000
C       -0.11650000       0.07870000       0.31640000
C       -1.48280000      -0.50820000      -0.02120000
C       -1.79510000      -0.76150000      -1.51640000
O       -1.96250000      -2.17920000      -1.29350000
C       -1.66550000      -2.02390000       0.09590000
C       -0.86230000      -3.04260000       0.84290000
C       -2.34700000      -2.84890000       1.13790000
C       -2.80530000      -2.24750000       2.44740000
H        0.99450000       1.95260000       0.19360000
H       -0.15430000       1.71580000      -1.12770000
H       -0.73850000       2.16400000       0.47900000
H        0.65910000      -0.50110000      -0.19970000
H        0.07340000      -0.04610000       1.39040000
H       -2.27090000       0.05650000       0.48830000
H       -2.70900000      -0.30120000      -1.90850000
H       -0.96430000      -0.55470000      -2.20360000
H       -0.56450000      -3.93250000       0.29840000
H       -0.14270000      -2.69800000       1.58040000
H       -2.99340000      -3.62370000       0.73220000
H       -2.13160000      -1.44810000       2.77470000
H       -3.81030000      -1.81920000       2.36190000
H       -2.82960000      -3.00060000       3.24280000
