10
Properties=species:S:1:pos:R:3 gdb_21437=T pbc="F F F"
N       -0.02910000       1.27730000       0.40730000
C       -0.00720000       0.13690000      -0.10180000
O        1.16510000      -0.57200000      -0.28630000
N        1.20250000      -1.83890000      -0.85060000
C        0.08690000      -2.34730000      -1.20520000
C       -1.22480000      -1.69320000      -1.06040000
O       -2.27010000      -2.16420000      -1.38950000
O       -1.17450000      -0.44490000      -0.49440000
H        0.90800000       1.58860000       0.65320000
H        0.11960000      -3.33690000      -1.64550000
