16
Properties=species:S:1:pos:R:3 gdb_29135=T pbc="F F F"
C       -0.24530000       1.53360000       0.03350000
C        0.01120000       0.05180000       0.00270000
C        0.14320000      -0.61280000      -1.15840000
O        0.37720000      -1.96060000      -1.22730000
C        0.49060000      -2.71300000      -0.09960000
N        0.70820000      -3.97100000      -0.10540000
C        0.35330000      -2.02800000       1.18430000
O        0.47390000      -2.81790000       2.26150000
C        0.12240000      -0.69660000       1.23230000
H        0.55020000       2.06080000       0.57260000
H       -0.30250000       1.95030000      -0.97530000
H       -1.18670000       1.76060000       0.54710000
H        0.08270000      -0.17820000      -2.14640000
H        0.78820000      -4.35400000      -1.04430000
H        0.63370000      -3.71140000       1.89820000
H        0.02200000      -0.19680000       2.18920000
