18
Properties=species:S:1:pos:R:3 gdb_85455=T pbc="F F F"
O        0.26480000       1.04870000      -0.71500000
C        0.05520000      -0.12640000       0.03840000
C        0.32460000      -0.01250000       1.54840000
C       -0.66100000      -0.99510000       2.13930000
N       -0.59910000      -1.51860000       3.28470000
O       -1.64710000      -1.25200000       1.21950000
C       -1.42130000      -0.49650000       0.03560000
C       -2.50000000       0.43850000      -0.42030000
C       -2.21580000      -0.85450000      -1.17020000
H        1.21040000       1.15570000      -0.85230000
H        0.63370000      -0.96400000      -0.38070000
H        1.34530000      -0.23510000       1.86050000
H        0.07250000       1.00280000       1.87560000
H       -1.39620000      -2.13950000       3.43770000
H       -3.39970000       0.47500000       0.18330000
H       -2.19710000       1.37370000      -0.87460000
H       -1.72390000      -0.78980000      -2.13510000
H       -2.93080000      -1.66320000      -1.07000000
