23
Properties=species:S:1:pos:R:3 gdb_72651=T pbc="F F F"
C       -0.26150000       1.54260000       0.01080000
C       -0.04000000       0.03710000      -0.00210000
C        1.13040000      -0.45630000      -0.91230000
C        1.83470000      -1.10420000       0.31070000
C        0.67030000      -0.64170000       1.24070000
C        1.04790000       0.17440000       2.45920000
O       -0.17490000      -1.70480000       1.67210000
C       -1.01460000      -2.08190000       0.58970000
C       -1.33760000      -0.77460000      -0.14410000
H        0.67520000       2.08840000       0.16730000
H       -0.67910000       1.88010000      -0.94510000
H       -0.95980000       1.84030000       0.80070000
H        0.83280000      -1.15540000      -1.69940000
H        1.69260000       0.35650000      -1.37910000
H        1.94790000      -2.19020000       0.27140000
H        2.80470000      -0.66720000       0.56140000
H        1.69350000       1.01480000       2.18790000
H        0.15670000       0.56400000       2.96020000
H        1.59030000      -0.45340000       3.17380000
H       -0.50130000      -2.79190000      -0.07910000
H       -1.89110000      -2.58660000       1.00510000
H       -2.15820000      -0.25650000       0.36450000
H       -1.63100000      -0.93260000      -1.18660000
