13
Properties=species:S:1:pos:R:3 gdb_3538=T pbc="F F F"
O       -0.08830000       1.47230000       0.00940000
C        1.35910000       1.23640000      -0.00470000
C        1.23670000       0.06860000       1.03770000
C        2.23900000      -0.99780000       0.64430000
C        2.22710000      -0.99060000      -0.69310000
C        1.21820000       0.07990000      -1.05730000
C        0.05950000       0.01330000       0.00020000
H        2.02150000       2.10590000      -0.00590000
H        1.01900000       0.30410000       2.07770000
H        2.81890000      -1.61120000       1.31950000
H        2.79500000      -1.59660000      -1.38510000
H        0.98210000       0.32660000      -2.09070000
H       -0.84840000      -0.59530000       0.00490000
