19
Properties=species:S:1:pos:R:3 gdb_116937=T pbc="F F F"
O       -0.05980000       1.51790000      -0.19650000
C        0.02050000       0.10740000      -0.30550000
C       -1.22750000      -0.46390000       0.37710000
C       -1.27250000      -1.91960000       0.33720000
C       -1.28450000      -3.12390000       0.28980000
C       -1.33020000      -4.56960000       0.25050000
C       -1.61970000      -5.35320000       1.56290000
O       -2.65940000      -6.11630000       0.92390000
C       -2.62790000      -5.27230000      -0.24150000
H        0.71510000       1.89880000      -0.61900000
H        0.04480000      -0.22070000      -1.35540000
H        0.92030000      -0.29000000       0.18750000
H       -1.24740000      -0.10790000       1.41450000
H       -2.11320000      -0.03930000      -0.11120000
H       -0.44890000      -4.96930000      -0.25980000
H       -0.81260000      -5.98820000       1.94350000
H       -2.00550000      -4.72230000       2.37330000
H       -3.49550000      -4.60280000      -0.29330000
H       -2.55220000      -5.84860000      -1.16980000
