13
Properties=species:S:1:pos:R:3 gdb_127895=T pbc="F F F"
C       -0.29340000       1.32080000      -0.12770000
N       -0.02050000      -0.08620000      -0.02680000
C       -0.02560000      -1.08240000      -0.68120000
N        2.77580000       0.84960000      -2.10740000
N        3.73630000       0.61220000      -2.58450000
O        1.92310000      -2.18960000      -2.34250000
C        0.89580000      -2.73050000      -2.00670000
O        0.55450000      -3.97840000      -2.38050000
N       -0.11340000      -2.20300000      -1.20710000
H       -1.16840000       1.51150000      -0.75690000
H       -0.47780000       1.72480000       0.86980000
H        0.57340000       1.83070000      -0.55730000
H        1.28380000      -4.29330000      -2.93210000
