16
Properties=species:S:1:pos:R:3 gdb_85514=T pbc="F F F"
O        0.07100000       1.44210000       0.02220000
C        0.04320000       0.02500000       0.01480000
C        0.62830000      -0.58900000       1.29380000
C       -0.57780000      -0.72640000       2.23540000
O       -0.56770000      -0.84880000       3.43740000
N       -1.69010000      -0.68720000       1.43070000
C       -1.42330000      -0.51490000       0.02480000
C       -2.38930000       0.43540000      -0.65460000
O       -3.33230000       0.93510000      -0.09910000
H       -0.31550000       1.75470000       0.84940000
H        0.57120000      -0.27040000      -0.89320000
H        1.04320000      -1.58620000       1.10960000
H        1.41300000       0.02870000       1.73310000
H       -2.62460000      -0.67560000       1.80830000
H       -1.46800000      -1.46790000      -0.53230000
H       -2.17330000       0.61510000      -1.72870000
