21
Properties=species:S:1:pos:R:3 gdb_115643=T pbc="F F F"
C       -0.00460000       1.59030000      -0.00320000
C       -0.21150000       0.08840000      -0.22720000
C        0.74620000      -0.48770000      -1.26310000
C        2.22560000      -0.65730000      -0.85360000
O        2.17260000      -2.07780000      -1.10880000
C        0.78840000      -2.02130000      -1.47100000
C       -0.17630000      -3.02180000      -0.80320000
O       -0.64940000      -3.47890000      -2.08680000
C        0.35230000      -2.70610000      -2.77930000
H        1.01220000       1.80540000       0.34330000
H       -0.16490000       2.15330000      -0.92910000
H       -0.69910000       1.97730000       0.74820000
H       -0.08420000      -0.44650000       0.72310000
H       -1.24480000      -0.09540000      -0.54770000
H        0.63020000       0.04450000      -2.21320000
H        2.97190000      -0.15730000      -1.48100000
H        2.44390000      -0.44290000       0.20090000
H        0.35670000      -3.80480000      -0.24780000
H       -0.98590000      -2.61880000      -0.18420000
H       -0.08150000      -2.06500000      -3.55700000
H        1.14180000      -3.33280000      -3.21450000
