19
Properties=species:S:1:pos:R:3 gdb_53939=T pbc="F F F"
C       -0.27740000       1.93740000       0.84630000
C       -0.39500000       0.46060000       1.13010000
C        0.16010000       0.03370000       2.46610000
C       -0.95490000      -0.40990000       0.26640000
N       -1.29190000      -0.11580000      -1.07420000
N       -1.29710000      -1.74200000       0.55160000
H       -1.04720000      -2.03740000       1.48320000
H       -0.94140000      -2.38850000      -0.14390000
C        0.30840000      -1.76100000      -2.95060000
O        0.23050000      -2.68890000      -2.25060000
O        0.41340000      -0.86740000      -3.68530000
H        0.75100000       2.23930000       0.59950000
H       -0.92260000       2.27470000       0.02880000
H       -0.56430000       2.52280000       1.73030000
H       -0.49870000       0.30430000       3.30430000
H        0.34670000      -1.04310000       2.52960000
H        1.12110000       0.52920000       2.65910000
H       -2.24990000      -0.37290000      -1.28690000
H       -1.11510000       0.84290000      -1.33630000
