22
Properties=species:S:1:pos:R:3 gdb_7966=T pbc="F F F"
C       -0.72020000       1.29610000      -0.02270000
C        0.18380000       0.06500000       0.01170000
C        1.20910000      -0.01930000      -1.14560000
C        2.40410000      -0.72010000      -0.53170000
C        3.50790000      -1.22890000      -1.40600000
C        2.31730000      -0.74650000       0.80590000
C        3.30020000      -1.29210000       1.79480000
C        1.05120000      -0.06740000       1.28750000
H       -0.12890000       2.21770000       0.03390000
H       -1.30820000       1.33510000      -0.94620000
H       -1.42270000       1.30020000       0.81800000
H       -0.44710000      -0.83080000      -0.04700000
H        0.81010000      -0.54640000      -2.02180000
H        1.49460000       0.98380000      -1.50160000
H        3.94430000      -0.41570000      -2.00150000
H        4.31620000      -1.69620000      -0.83830000
H        3.13150000      -1.96780000      -2.12570000
H        4.17600000      -1.73940000       1.31830000
H        3.65460000      -0.50390000       2.47270000
H        2.83580000      -2.05730000       2.43070000
H        1.28580000       0.92010000       1.71660000
H        0.54370000      -0.62760000       2.08330000
