16
Properties=species:S:1:pos:R:3 gdb_20764=T pbc="F F F"
C       -0.02730000       1.49020000      -0.02650000
C        0.00790000      -0.00370000       0.02460000
N       -0.01150000      -0.69020000      -1.09360000
O        0.03040000      -2.04470000      -0.69120000
C        0.07150000      -2.09280000       0.64550000
N        0.17840000      -3.34880000       1.20180000
C        0.05760000      -0.83480000       1.18420000
C        0.09620000      -0.43030000       2.62420000
H        0.86960000       1.92150000       0.43100000
H       -0.08730000       1.82740000      -1.06300000
H       -0.89230000       1.88260000       0.51950000
H       -0.20610000      -4.08270000       0.62250000
H       -0.14480000      -3.40750000       2.15660000
H        1.10280000      -0.14800000       2.95780000
H       -0.55910000       0.42590000       2.81620000
H       -0.24090000      -1.24150000       3.27950000
