16
Properties=species:S:1:pos:R:3 gdb_39254=T pbc="F F F"
C       -0.10790000       1.42780000      -0.13530000
C        1.29860000       0.91800000       0.08300000
O        1.76390000       0.87840000       1.40950000
C        1.40820000      -0.38660000       1.97980000
C        0.08170000      -0.78000000       1.30380000
O        0.00790000      -2.16420000       0.89270000
C       -0.05690000      -2.13810000      -0.46760000
N       -0.01550000      -1.02470000      -1.08040000
C        0.15220000      -0.04780000      -0.04240000
H       -0.61100000       1.91880000       0.69190000
H       -0.33820000       1.81640000      -1.12210000
H        2.05920000       1.03480000      -0.68150000
H        2.16430000      -1.15330000       1.75610000
H        1.34060000      -0.25450000       3.06210000
H       -0.79620000      -0.56850000       1.92160000
H       -0.13670000      -3.11410000      -0.93100000
