17
Properties=species:S:1:pos:R:3 gdb_20546=T pbc="F F F"
C       -0.02520000       1.57940000       0.17720000
C       -0.03830000       0.04840000       0.01870000
C        0.84700000      -0.62770000       1.08080000
C       -1.43980000      -0.49300000       0.04890000
N       -1.97580000      -1.12580000      -0.99940000
N       -3.19710000      -1.43960000      -0.58280000
N       -3.51800000      -1.07150000       0.64850000
C       -2.41000000      -0.46380000       1.07310000
H        0.99720000       1.96440000       0.10540000
H       -0.62810000       2.06300000      -0.59680000
H       -0.42640000       1.87890000       1.15180000
H        0.36300000      -0.19780000      -0.97060000
H        0.48120000      -0.41750000       2.09190000
H        0.86420000      -1.71340000       0.94930000
H        1.87550000      -0.25840000       1.01530000
H       -3.84620000      -1.93330000      -1.17330000
H       -2.35970000      -0.04510000       2.06560000
