16
Properties=species:S:1:pos:R:3 gdb_57135=T pbc="F F F"
C       -0.17420000       1.53260000       0.15660000
C        0.04580000       0.00840000       0.01700000
C        0.75900000      -0.52180000       1.17150000
C        1.36900000      -0.94010000       2.12720000
C        2.05930000      -1.41550000       3.20510000
N        2.64890000      -1.82160000       4.12000000
C       -1.28990000      -0.69280000      -0.22760000
C       -1.65070000      -2.00640000       0.31340000
O       -2.17400000      -0.79760000       0.87900000
H        0.77530000       2.05290000       0.29920000
H       -0.65220000       1.92160000      -0.74720000
H       -0.82200000       1.74020000       1.01130000
H        0.66970000      -0.17390000      -0.87040000
H       -1.76490000      -0.36910000      -1.15590000
H       -2.37350000      -2.62280000      -0.21820000
H       -0.94380000      -2.54200000       0.94260000
