21
Properties=species:S:1:pos:R:3 gdb_102182=T pbc="F F F"
C       -0.27320000       1.73060000       1.05920000
C       -0.21710000       0.29000000       0.55860000
N        0.81990000      -0.53150000       1.20360000
C        0.62900000      -1.93250000       0.82970000
C        1.35200000      -2.87640000       1.69130000
N        1.88970000      -3.65620000       2.35240000
C        2.15910000      -0.08190000       0.90850000
C        2.80310000       0.97520000       1.76830000
C        3.28920000      -0.44690000       1.83820000
H        0.62030000       2.29520000       0.78640000
H       -1.13690000       2.23460000       0.61440000
H       -0.38120000       1.75840000       2.14720000
H       -1.18080000      -0.19010000       0.76400000
H       -0.09510000       0.28820000      -0.54230000
H       -0.43590000      -2.17530000       0.91270000
H        0.91770000      -2.14230000      -0.21780000
H        2.41000000      -0.05020000      -0.15840000
H        3.41910000       1.72140000       1.27880000
H        2.23240000       1.33880000       2.61380000
H        3.04000000      -1.01210000       2.72650000
H        4.24440000      -0.70090000       1.39360000
