21
Properties=species:S:1:pos:R:3 gdb_107394=T pbc="F F F"
C        0.21160000       1.28150000      -0.33010000
O       -0.21670000       0.00210000       0.09500000
C        0.49650000      -0.49580000       1.18140000
C        1.90570000      -1.01810000       0.98340000
C        0.77250000      -1.97510000       1.30510000
C        0.53650000      -2.36430000       2.76060000
C        0.20350000      -1.04810000       3.44900000
C       -0.00720000      -0.97290000       4.92800000
C        0.16170000      -0.04290000       2.56780000
H        1.27460000       1.28030000      -0.61030000
H       -0.38930000       1.54530000      -1.20370000
H        0.05990000       2.04690000       0.44480000
H        2.27150000      -1.05870000      -0.03790000
H        2.65820000      -0.80130000       1.73540000
H        0.45670000      -2.64320000       0.51330000
H       -0.28910000      -3.08210000       2.86420000
H        1.41620000      -2.84340000       3.21120000
H        0.89520000      -1.27160000       5.47690000
H       -0.27610000       0.03790000       5.24680000
H       -0.80440000      -1.65640000       5.24820000
H       -0.05800000       0.99110000       2.81080000
