15
Properties=species:S:1:pos:R:3 gdb_73776=T pbc="F F F"
C        0.02270000       1.54670000       0.00160000
C       -0.03300000       0.05330000      -0.00750000
C       -1.10110000      -0.78470000      -0.02370000
N       -2.43020000      -0.56810000      -0.05930000
C       -0.59730000      -2.17900000      -0.02300000
N       -1.34080000      -3.19990000      -0.01590000
O        0.76280000      -2.14750000      -0.02050000
C        1.16490000      -0.77950000      -0.00700000
O        2.32580000      -0.49560000       0.00310000
H        1.06500000       1.87260000       0.02480000
H       -0.44760000       1.97880000      -0.88990000
H       -0.48280000       1.97110000       0.87780000
H       -2.81270000       0.34590000       0.10630000
H       -3.03020000      -1.37080000       0.04980000
H       -0.79560000      -4.06250000      -0.01030000
