18
Properties=species:S:1:pos:R:3 gdb_18833=T pbc="F F F"
C       -0.05600000       1.56190000       0.04520000
C        0.03980000       0.03770000       0.00050000
C        0.84860000      -0.52210000      -1.21130000
C        1.63130000      -1.70260000      -0.63830000
C        2.52600000      -1.40120000       0.54920000
O        2.18810000      -0.13610000       1.12200000
C        0.78490000      -0.57320000       1.18880000
C        1.17990000      -2.00770000       0.78040000
H        0.94410000       1.99740000       0.12940000
H       -0.52710000       1.95580000      -0.86100000
H       -0.64890000       1.90030000       0.90200000
H       -0.97050000      -0.39480000      -0.01100000
H        0.18930000      -0.83960000      -2.02430000
H        1.51970000       0.24360000      -1.61430000
H        1.93340000      -2.52700000      -1.27510000
H        3.53600000      -1.76920000       0.68710000
H        0.36140000      -0.39120000       2.17880000
H        0.85350000      -2.95280000       1.19010000
