19
Properties=species:S:1:pos:R:3 gdb_122105=T pbc="F F F"
O       -0.97410000       1.63790000      -0.83370000
C       -0.40310000       0.55000000      -0.13830000
C       -1.40280000      -0.52720000       0.30230000
N       -2.00410000      -1.29750000      -0.79230000
C       -3.37740000      -0.99440000      -1.16280000
C       -3.63700000       0.41270000      -1.76630000
O       -2.76180000       0.68300000      -2.84990000
C       -3.82430000      -2.00030000      -2.14430000
N       -4.16380000      -2.72770000      -2.97580000
H       -1.25270000       1.33990000      -1.71080000
H        0.39760000       0.07100000      -0.72770000
H        0.07190000       0.96670000       0.75740000
H       -0.87350000      -1.21760000       0.97500000
H       -2.19850000      -0.05910000       0.89290000
H       -1.41410000      -1.29120000      -1.61600000
H       -4.00930000      -1.09640000      -0.27050000
H       -4.69030000       0.50630000      -2.06220000
H       -3.41170000       1.16660000      -1.01000000
H       -2.98350000       0.10100000      -3.58630000
