20
Properties=species:S:1:pos:R:3 gdb_65806=T pbc="F F F"
C       -0.03780000       1.76540000      -0.24940000
C       -0.01500000       0.24720000      -0.13590000
C       -1.40050000      -0.37270000       0.07850000
C       -1.99860000      -0.00550000       1.45220000
C       -3.24480000      -0.71710000       1.72060000
N       -4.23120000      -1.28730000       1.91510000
C        0.84730000      -0.49130000      -1.19450000
C        1.69840000      -0.94060000       0.00790000
O        0.88800000      -0.17890000       0.92840000
H        0.97430000       2.14750000      -0.40740000
H       -0.66360000       2.08220000      -1.09080000
H       -0.42670000       2.22870000       0.66240000
H       -2.07680000      -0.06130000      -0.72550000
H       -1.31240000      -1.46220000       0.02050000
H       -1.26880000      -0.25210000       2.23070000
H       -2.19590000       1.06920000       1.52370000
H        0.33820000      -1.28410000      -1.74490000
H        1.35620000       0.16620000      -1.90110000
H        1.67260000      -2.01390000       0.23160000
H        2.74180000      -0.60550000       0.01230000
