19
Properties=species:S:1:pos:R:3 gdb_37290=T pbc="F F F"
C       -0.05570000       1.40430000       0.18400000
C        1.31370000       0.77410000       0.10370000
C        0.02540000      -0.08890000       0.14070000
C        0.38350000      -0.66670000      -1.24830000
C        0.03000000      -0.02870000      -2.64340000
O       -0.65350000       1.24500000      -2.68340000
C        0.59650000       1.96410000      -2.86480000
C        1.41610000       0.68060000      -2.68510000
C        1.71240000       0.12680000      -1.24650000
H       -0.26710000       1.79250000       1.17710000
H       -0.52120000       1.96120000      -0.61230000
H        2.02780000       0.94180000       0.90190000
H       -0.35150000      -0.70070000       0.95170000
H        0.41650000      -1.75710000      -1.28210000
H       -0.34770000      -0.71130000      -3.41110000
H        0.65260000       2.39030000      -3.87410000
H        0.73590000       2.76340000      -2.12960000
H        2.17890000       0.46230000      -3.43230000
H        2.65010000      -0.42510000      -1.16900000
