20
Properties=species:S:1:pos:R:3 gdb_121320=T pbc="F F F"
C        0.08460000       1.51060000       0.48630000
C       -0.08220000       0.02050000       0.24550000
O        0.83920000      -0.66580000       1.08870000
C        0.80400000      -2.07800000       0.97120000
C        1.96480000      -2.64290000       1.78810000
C        1.35620000      -2.70590000       3.19410000
O       -0.04440000      -2.97450000       2.98360000
C       -0.40450000      -2.64610000       1.71060000
N       -1.56740000      -2.76830000       1.23010000
H        1.10920000       1.82690000       0.27000000
H       -0.59660000       2.07500000      -0.15740000
H       -0.13830000       1.75980000       1.52780000
H       -1.10820000      -0.30460000       0.45780000
H        0.12910000      -0.23190000      -0.80650000
H        0.79980000      -2.38340000      -0.08180000
H        2.21640000      -3.64740000       1.43530000
H        2.85020000      -2.00890000       1.72720000
H        1.75740000      -3.50590000       3.81970000
H        1.45620000      -1.75150000       3.72180000
H       -2.21110000      -3.12930000       1.93790000
