17
Properties=species:S:1:pos:R:3 gdb_85750=T pbc="F F F"
C        0.29120000       1.54490000      -0.15630000
C        0.08750000       0.04580000      -0.00240000
O        0.67430000      -0.60750000      -1.13490000
C        1.19550000      -1.88400000      -0.76050000
C        2.36280000      -2.20790000      -1.57240000
C        3.32170000      -2.51670000      -2.22550000
C        1.46880000      -1.77500000       0.73710000
O        2.19380000      -0.59850000       1.08680000
C        0.76510000      -0.58300000       1.20160000
H        1.35860000       1.77630000      -0.13160000
H       -0.12130000       1.88500000      -1.10950000
H       -0.21260000       2.08550000       0.65120000
H       -0.98910000      -0.19070000       0.05290000
H        0.43090000      -2.66820000      -0.90180000
H        4.17410000      -2.77470000      -2.80410000
H        1.65230000      -2.66580000       1.33030000
H        0.35750000      -0.46780000       2.20210000
