19
Properties=species:S:1:pos:R:3 gdb_63150=T pbc="F F F"
C        0.14460000       1.54280000       0.04440000
C        0.03480000       0.02160000      -0.00100000
C       -1.41700000      -0.43760000       0.21670000
C        0.69160000      -0.76900000      -1.18900000
C        2.03090000      -0.24240000      -1.72040000
O        2.76920000      -0.88900000      -0.65300000
C        1.58120000      -1.57440000      -0.18610000
C        0.95800000      -0.76220000       0.96990000
O        1.11830000      -0.72910000       2.15450000
H        1.17610000       1.88630000      -0.06940000
H       -0.46150000       2.00490000      -0.74290000
H       -0.21670000       1.91140000       1.00950000
H       -2.06660000      -0.01960000      -0.56010000
H       -1.50970000      -1.52850000       0.18140000
H       -1.78090000      -0.10230000       1.19220000
H        0.00410000      -1.23010000      -1.89580000
H        2.31370000      -0.66000000      -2.69480000
H        2.18680000       0.84110000      -1.73840000
H        1.70200000      -2.65860000      -0.11950000
