22
Properties=species:S:1:pos:R:3 gdb_58901=T pbc="F F F"
C        0.08440000       1.41970000      -0.30140000
C       -0.00520000      -0.02690000       0.18390000
O        0.61610000      -0.19890000       1.45780000
C       -1.43230000      -0.54800000       0.19520000
C       -2.44050000       0.00380000       1.19910000
C       -3.61800000      -0.99980000       1.18110000
C       -2.99140000      -2.35320000       0.76760000
C       -1.77780000      -1.97280000      -0.06350000
N       -1.94560000      -0.96080000      -1.12300000
H        1.12770000       1.74520000      -0.33920000
H       -0.35120000       1.51340000      -1.30010000
H       -0.46070000       2.09590000       0.36950000
H        0.56440000      -0.66240000      -0.50280000
H        0.35710000       0.54210000       2.01500000
H       -1.96770000       0.02080000       2.18850000
H       -2.76430000       1.02630000       0.97440000
H       -4.13210000      -1.05450000       2.14360000
H       -4.37180000      -0.68840000       0.45050000
H       -2.65280000      -2.91220000       1.64830000
H       -3.69830000      -2.99620000       0.23170000
H       -1.01900000      -2.72310000      -0.26720000
H       -2.92370000      -0.70810000      -1.24330000
