18
Properties=species:S:1:pos:R:3 gdb_93428=T pbc="F F F"
O       -0.04790000       1.47250000       0.06940000
C        0.07070000       0.05840000      -0.02810000
C        0.66710000      -0.53320000       1.26090000
N        1.21790000      -1.85980000       1.07180000
C        0.58260000      -2.99700000       0.64910000
O        1.16800000      -4.07020000       0.64580000
C       -0.83500000      -2.93210000       0.19750000
C       -1.60720000      -1.91330000      -0.19510000
C       -1.34470000      -0.44120000      -0.29350000
H        0.83600000       1.85280000       0.05760000
H        0.72990000      -0.22630000      -0.86190000
H        1.49000000       0.11000000       1.58680000
H       -0.08900000      -0.51010000       2.05850000
H        2.16330000      -2.03490000       1.37580000
H       -1.25110000      -3.93390000       0.15230000
H       -2.61750000      -2.17920000      -0.50440000
H       -2.01090000       0.07600000       0.41330000
H       -1.66120000      -0.09090000      -1.28410000
