18
Properties=species:S:1:pos:R:3 gdb_61909=T pbc="F F F"
C       -0.06420000       1.49820000       0.05170000
N       -0.02730000       0.04690000      -0.00760000
C        0.04260000      -0.71110000       1.22990000
C       -1.35450000      -1.18450000       1.70150000
C       -1.29380000      -1.86380000       2.99120000
N       -1.21610000      -2.38880000       4.01790000
C       -0.13210000      -0.67460000      -1.17660000
N       -0.10600000       0.06900000      -2.34990000
O       -0.28250000      -1.88670000      -1.17900000
H        0.93690000       1.95180000       0.01010000
H       -0.66690000       1.89660000      -0.76760000
H       -0.53310000       1.81600000       0.98730000
H        0.67290000      -1.58840000       1.07480000
H        0.50730000      -0.08540000       1.99620000
H       -2.03760000      -0.33150000       1.78330000
H       -1.75480000      -1.86420000       0.94400000
H        0.48470000       0.88540000      -2.38930000
H       -0.03260000      -0.52740000      -3.16060000
