21
Properties=species:S:1:pos:R:3 gdb_57347=T pbc="F F F"
C        0.01730000       1.54740000      -0.36410000
C        0.03820000       0.02470000      -0.12680000
C        0.85160000      -0.32910000       1.13360000
C       -1.41090000      -0.44410000       0.09310000
N        0.65940000      -0.65150000      -1.32010000
C        1.97290000      -0.38740000      -1.72070000
N        2.74740000       0.43000000      -1.12850000
C       -0.02090000      -1.57950000      -2.10470000
O        0.44200000      -2.14470000      -3.07090000
H        1.02570000       1.94020000      -0.48330000
H       -0.56670000       1.78800000      -1.25820000
H       -0.45400000       2.04040000       0.49160000
H        0.38970000       0.14270000       2.00630000
H        0.85580000      -1.41170000       1.29570000
H        1.87920000       0.02050000       1.04900000
H       -2.06820000      -0.20080000      -0.74700000
H       -1.48360000      -1.51530000       0.30310000
H       -1.79540000       0.08480000       0.96920000
H        2.22470000      -0.97840000      -2.60150000
H        3.64700000       0.44890000      -1.60590000
H       -1.04540000      -1.76380000      -1.76480000
