19
Properties=species:S:1:pos:R:3 gdb_90190=T pbc="F F F"
C        0.07440000       1.47600000      -0.13520000
N       -0.03000000       0.03910000       0.06090000
C       -1.43940000      -0.45030000       0.27900000
C       -1.15210000      -1.27050000       1.52230000
C       -1.44240000      -2.23160000       2.68420000
N        0.05280000      -1.93600000       2.91430000
C        0.25300000      -1.91720000       1.38070000
C        0.73700000      -0.48140000       1.22530000
C       -0.19210000      -0.47770000       2.45170000
H        1.12710000       1.75170000      -0.25580000
H       -0.44950000       1.76350000      -1.05230000
H       -0.34220000       2.07860000       0.69360000
H       -2.13210000       0.38250000       0.45470000
H       -1.79080000      -1.02720000      -0.58240000
H       -2.08690000      -1.88320000       3.49740000
H       -1.64770000      -3.28000000       2.44620000
H        0.51170000      -2.81800000       0.82360000
H        1.78040000      -0.16460000       1.21900000
H       -0.45830000       0.30030000       3.16840000
