21
Properties=species:S:1:pos:R:3 gdb_10523=T pbc="F F F"
C       -1.71140000       1.74430000       0.87460000
C       -1.08280000       0.40860000       0.47010000
C       -2.12320000      -0.71810000       0.36250000
C       -1.55890000      -2.07520000      -0.02410000
C       -0.57230000      -2.72320000       0.93960000
O        0.72780000      -2.17690000       0.80460000
C       -2.35840000      -2.95700000      -0.91300000
N       -1.14130000      -2.29860000      -1.42800000
H       -0.95800000       2.53560000       0.93630000
H       -2.47160000       2.06410000       0.15240000
H       -2.19850000       1.67280000       1.85380000
H       -0.57240000       0.52010000      -0.49560000
H       -0.30430000       0.12200000       1.18290000
H       -2.64920000      -0.81660000       1.32250000
H       -2.88940000      -0.43180000      -0.37180000
H       -0.87920000      -2.55270000       1.97700000
H       -0.55840000      -3.81040000       0.76970000
H        0.92080000      -2.22340000      -0.14090000
H       -2.28820000      -4.03750000      -0.82020000
H       -3.32460000      -2.59660000      -1.25680000
H       -1.40140000      -1.49670000      -1.99740000
