15
Properties=species:S:1:pos:R:3 gdb_48928=T pbc="F F F"
O       -0.00140000      -0.00740000       0.19820000
C        0.07680000       1.18180000       0.03250000
C        1.33800000       1.97050000       0.04290000
O        2.56100000       1.29440000       0.35590000
C        3.07600000       2.60210000       0.68690000
C        2.99410000       3.48630000      -0.59120000
C        1.73110000       4.18550000      -0.14410000
C        1.63250000       3.01350000      -1.09100000
C        1.65900000       3.16550000       1.02770000
H       -0.82480000       1.81410000      -0.14090000
H        3.95580000       2.59130000       1.32690000
H        3.77640000       3.82450000      -1.25580000
H        1.40710000       5.21010000      -0.24440000
H        1.35860000       2.97830000      -2.13590000
H        1.23680000       3.27520000       2.02290000
