12
Properties=species:S:1:pos:R:3 gdb_49358=T pbc="F F F"
O        0.26890000       0.19930000      -0.54460000
C        0.22710000       1.34560000      -0.20020000
N        1.28310000       1.99370000       0.46390000
C        2.67610000       1.92710000       0.10000000
C        3.09860000       1.32980000      -1.14540000
N        3.49030000       0.85670000      -2.12350000
C        1.90330000       3.24680000       0.09020000
C        1.57470000       3.88260000      -1.16390000
N        1.28700000       4.42130000      -2.14490000
H       -0.65640000       2.00130000      -0.28740000
H        3.36510000       1.76710000       0.92560000
H        2.08850000       3.93970000       0.90730000
