17
Properties=species:S:1:pos:R:3 gdb_93073=T pbc="F F F"
C       -0.08300000       1.47780000       0.05890000
C        0.00600000      -0.03910000      -0.02780000
C        0.75790000      -0.51060000      -1.27230000
N        0.65420000      -1.91940000      -1.59220000
C        0.48000000      -2.80210000      -0.70480000
N        0.36690000      -2.72560000       0.68730000
C        0.65390000      -1.71920000       1.61700000
O        0.86500000      -1.99420000       2.76920000
O        0.68240000      -0.45300000       1.18260000
H        0.91650000       1.92270000       0.04330000
H       -0.65390000       1.87200000      -0.78610000
H       -0.57690000       1.77720000       0.98590000
H       -1.00090000      -0.47500000      -0.02360000
H        0.37950000       0.04880000      -2.13600000
H        1.81600000      -0.23310000      -1.16690000
H        0.39090000      -3.84030000      -1.02980000
H        0.31640000      -3.61850000       1.15690000
