17
Properties=species:S:1:pos:R:3 gdb_75311=T pbc="F F F"
C       -0.04750000       1.50370000       0.05700000
C       -0.03630000       0.01170000      -0.01710000
C        0.03800000      -0.77340000      -1.09610000
C        0.02610000      -2.25190000      -0.77300000
C        0.01680000      -2.27680000       0.75050000
N        1.19630000      -1.65930000       1.37160000
C       -0.05740000      -0.85180000       1.21660000
C       -0.77840000      -0.45840000       2.39340000
N       -1.34970000      -0.12060000       3.34160000
H        0.83280000       1.87760000       0.59400000
H       -0.05540000       1.94800000      -0.94110000
H       -0.92630000       1.86710000       0.60280000
H        0.13510000      -0.40560000      -2.11150000
H       -0.85910000      -2.75460000      -1.18280000
H        0.90540000      -2.77110000      -1.17200000
H       -0.50190000      -3.06390000       1.28620000
H        1.26250000      -1.98010000       2.33740000
