15
Properties=species:S:1:pos:R:3 gdb_19835=T pbc="F F F"
N       -0.05240000       1.47970000       0.00020000
C        1.27900000       0.82410000      -0.00200000
C        2.14320000       0.80310000       1.19490000
C        1.82500000       0.16430000       2.32990000
C        0.56830000      -0.59560000       2.47240000
O       -0.68580000       0.13160000       2.41280000
C       -0.33970000      -0.69420000       1.30420000
C        0.00730000       0.02140000       0.02840000
H       -0.26700000       1.79280000       0.94780000
H        1.79630000       0.94470000      -0.95020000
H        3.09590000       1.32010000       1.11880000
H        2.51090000       0.16520000       3.17110000
H        0.55580000      -1.38810000       3.21800000
H       -0.95260000      -1.58730000       1.19410000
H       -0.32390000      -0.47060000      -0.88190000
