18
Properties=species:S:1:pos:R:3 gdb_7501=T pbc="F F F"
C       -0.05870000       1.35800000      -0.02220000
O       -0.07890000      -0.05170000      -0.06350000
C        0.67980000      -0.59840000      -1.12550000
C        0.63750000      -2.10920000      -0.95770000
O        1.10210000      -2.47660000       0.31360000
C       -0.67460000      -2.76830000      -1.46290000
O       -0.00930000      -3.21740000      -2.66430000
C        1.28350000      -2.88630000      -2.11800000
H        0.96460000       1.74520000       0.09720000
H       -0.48930000       1.79420000      -0.93580000
H       -0.65940000       1.66830000       0.83580000
H        0.26770000      -0.30360000      -2.10290000
H        1.72410000      -0.24830000      -1.07120000
H        0.75470000      -1.81550000       0.92660000
H       -0.99070000      -3.60420000      -0.82630000
H       -1.52730000      -2.11570000      -1.67800000
H        1.90380000      -2.32340000      -2.82590000
H        1.83200000      -3.76970000      -1.76720000
