18
Properties=species:S:1:pos:R:3 gdb_56599=T pbc="F F F"
N       -0.08090000       1.54390000       0.00140000
C       -0.00370000       0.08360000      -0.05100000
C       -1.34490000      -0.47720000       0.16530000
N       -2.39930000      -0.92290000       0.31800000
C        0.62850000      -0.51510000      -1.34330000
O       -0.10450000      -0.16560000      -2.50180000
C        2.09130000      -0.09570000      -1.44760000
C        2.81970000      -0.19460000      -2.72960000
N        2.46710000       1.13040000      -2.17620000
H        0.80080000       1.96340000      -0.27540000
H       -0.83020000       1.91750000      -0.56960000
H        0.62260000      -0.24670000       0.78850000
H        0.57880000      -1.60810000      -1.26560000
H       -0.46690000       0.71870000      -2.37440000
H        2.65700000      -0.24320000      -0.52870000
H        3.88040000      -0.42550000      -2.73140000
H        2.26170000      -0.54090000      -3.59390000
H        1.65240000       1.45550000      -2.69400000
