19
Properties=species:S:1:pos:R:3 gdb_121783=T pbc="F F F"
O       -0.03450000       1.45510000      -0.00960000
C        0.04870000       0.03840000       0.00080000
C       -1.37190000      -0.51090000       0.03020000
C       -1.40630000      -2.03950000       0.02700000
C       -2.85120000      -2.61610000       0.07050000
C       -2.83710000      -4.07240000      -0.10340000
C       -2.79530000      -5.26210000      -0.26170000
C       -3.55430000      -2.23720000       1.30140000
C       -4.11590000      -1.91320000       2.31250000
H        0.85940000       1.80900000      -0.01870000
H        0.57680000      -0.33670000      -0.89170000
H        0.60430000      -0.32300000       0.88190000
H       -1.88010000      -0.12400000       0.91960000
H       -1.91310000      -0.11830000      -0.83980000
H       -0.92600000      -2.43140000      -0.87640000
H       -0.85250000      -2.44070000       0.88270000
H       -3.40150000      -2.18130000      -0.77750000
H       -2.77200000      -6.31520000      -0.39640000
H       -4.62090000      -1.63320000       3.20370000
