19
Properties=species:S:1:pos:R:3 gdb_53678=T pbc="F F F"
C        0.06770000       1.49670000      -0.06430000
C        0.02230000       0.04240000      -0.05230000
C       -0.02570000      -1.15970000      -0.04210000
C       -0.05410000      -2.61430000      -0.03040000
O       -1.39470000      -3.07560000      -0.00110000
C       -1.45550000      -4.49230000       0.01100000
C       -2.84170000      -4.93330000       0.04110000
C       -3.98020000      -5.32120000       0.06590000
C       -5.36130000      -5.77850000       0.09590000
H        0.60720000       1.88750000       0.80540000
H        0.56560000       1.87430000      -0.96410000
H       -0.94330000       1.91810000      -0.04370000
H        0.46530000      -3.00890000      -0.92180000
H        0.49920000      -2.99530000       0.84640000
H       -0.94830000      -4.90310000      -0.88000000
H       -0.91430000      -4.88950000       0.88820000
H       -5.59830000      -6.39390000      -0.77890000
H       -5.56560000      -6.37650000       0.99080000
H       -6.05280000      -4.92890000       0.10030000
