21
Properties=species:S:1:pos:R:3 gdb_123081=T pbc="F F F"
C       -0.94800000       1.60560000      -0.73230000
O       -0.77190000       0.21190000      -0.80900000
C       -0.51670000      -0.37740000       0.44480000
C       -0.34710000      -1.87240000       0.22450000
O       -0.09190000      -2.46040000       1.48080000
C        0.08460000      -3.86310000       1.39510000
C        0.34420000      -4.42030000       2.71500000
C        0.56050000      -4.90390000       3.79520000
C        0.82090000      -5.47950000       5.10610000
H       -1.13900000       1.96810000      -1.74530000
H       -1.80210000       1.87510000      -0.09090000
H       -0.05180000       2.10970000      -0.33700000
H        0.39680000       0.03580000       0.90250000
H       -1.34670000      -0.19810000       1.14740000
H       -1.26050000      -2.28620000      -0.23290000
H        0.48330000      -2.05230000      -0.47760000
H       -0.81390000      -4.33290000       0.95820000
H        0.92180000      -4.09960000       0.71530000
H        0.08420000      -6.25030000       5.35790000
H        1.81430000      -5.93910000       5.15180000
H        0.77540000      -4.71120000       5.88580000
