23
Properties=species:S:1:pos:R:3 gdb_75493=T pbc="F F F"
C       -0.10300000       1.49950000       0.04090000
C       -0.02330000      -0.00400000      -0.00540000
C       -0.02490000      -0.68530000      -1.15570000
C        0.08650000      -2.18920000      -1.22610000
C        0.98490000      -2.72950000      -0.09900000
C        0.60110000      -2.14080000       1.25590000
C        1.42350000      -1.03250000       1.87680000
C        0.04990000      -0.73290000       1.30460000
C       -1.06740000      -0.43480000       2.29170000
H        0.73860000       1.92180000       0.60470000
H       -0.09070000       1.92850000      -0.96480000
H       -1.01630000       1.84420000       0.54110000
H       -0.09540000      -0.14110000      -2.09530000
H       -0.91240000      -2.64500000      -1.15670000
H        0.48510000      -2.49200000      -2.20090000
H        0.92960000      -3.82260000      -0.06090000
H        2.02560000      -2.47990000      -0.33520000
H        0.14980000      -2.83970000       1.95450000
H        1.54300000      -1.01390000       2.95590000
H        2.29140000      -0.68840000       1.32260000
H       -1.05990000       0.61310000       2.61100000
H       -2.04990000      -0.64340000       1.85280000
H       -0.96400000      -1.05170000       3.19010000
