22
Properties=species:S:1:pos:R:3 gdb_95843=T pbc="F F F"
C        0.00350000       1.59120000      -0.00100000
C        0.02290000       0.06070000      -0.03770000
C        0.73860000      -0.47370000      -1.29130000
C        0.78710000      -2.00750000      -1.32350000
C        1.43220000      -2.57660000      -0.05420000
C        0.73020000      -2.06100000       1.22630000
C        0.67110000      -0.51410000       1.23270000
C       -0.61390000      -2.63760000       1.35240000
N       -1.67330000      -3.09150000       1.44670000
H        1.02130000       1.99770000       0.03700000
H       -0.48430000       2.00070000      -0.89160000
H       -0.53630000       1.96210000       0.87670000
H       -1.01740000      -0.29360000      -0.06810000
H        0.24090000      -0.09430000      -2.19110000
H        1.76380000      -0.07520000      -1.31310000
H       -0.23110000      -2.40530000      -1.42050000
H        1.34140000      -2.35200000      -2.20310000
H        1.42440000      -3.67060000      -0.06870000
H        2.48210000      -2.26280000       0.00170000
H        1.29690000      -2.39750000       2.10270000
H        1.70280000      -0.14680000       1.31390000
H        0.13860000      -0.16680000       2.12430000
