22
Properties=species:S:1:pos:R:3 gdb_101210=T pbc="F F F"
C       -0.14520000       1.55740000       0.13450000
C        0.07160000       0.04510000       0.02180000
C        0.78550000      -0.41620000      -1.26610000
C        2.21510000       0.13270000      -1.36380000
C        0.71650000      -1.94720000      -1.37280000
C        1.40230000      -2.67570000      -2.56940000
C        2.22060000      -3.43650000      -1.49800000
O        3.03390000      -4.32030000      -1.49070000
N        1.62220000      -2.71080000      -0.49360000
H        0.79930000       2.10550000       0.19660000
H       -0.69750000       1.94190000      -0.73040000
H       -0.72330000       1.80070000       1.03140000
H        0.64360000      -0.30620000       0.89230000
H       -0.90400000      -0.45530000       0.07720000
H        0.20630000      -0.03240000      -2.11980000
H        2.71110000      -0.17950000      -2.28720000
H        2.21670000       1.22540000      -1.35320000
H        2.82670000      -0.21500000      -0.52550000
H       -0.32890000      -2.26100000      -1.25440000
H        0.74580000      -3.31880000      -3.15820000
H        1.99520000      -2.05110000      -3.23820000
H        1.62660000      -2.85420000       0.50580000
