21
Properties=species:S:1:pos:R:3 gdb_122923=T pbc="F F F"
O       -0.05530000       1.47780000       0.01370000
C        0.03900000       0.06100000       0.02250000
C       -1.37460000      -0.50490000      -0.00980000
C       -1.40310000      -2.03560000       0.00000000
C       -2.82490000      -2.60270000      -0.03110000
C       -2.85160000      -4.14250000       0.02720000
O       -2.19610000      -4.64730000       1.19010000
C       -4.22120000      -4.65440000      -0.07980000
C       -5.35610000      -5.04890000      -0.12430000
H        0.83570000       1.83850000       0.03530000
H        0.60630000      -0.30620000      -0.84890000
H        0.56190000      -0.29870000       0.92390000
H       -1.92450000      -0.11040000       0.85380000
H       -1.88210000      -0.11970000      -0.90290000
H       -0.84370000      -2.42020000      -0.86440000
H       -0.89070000      -2.41860000       0.88960000
H       -3.40840000      -2.21360000       0.81400000
H       -3.34650000      -2.28110000      -0.94070000
H       -2.26000000      -4.53320000      -0.81080000
H       -2.78390000      -4.49680000       1.93900000
H       -6.35250000      -5.41270000      -0.17810000
