21
Properties=species:S:1:pos:R:3 gdb_40740=T pbc="F F F"
C       -0.19540000       1.20970000      -0.38070000
C        1.22570000       1.10960000       0.11630000
C        0.34810000      -0.11790000       0.08810000
C       -0.14530000      -0.73510000       1.36570000
C       -1.42650000      -1.63940000       1.33550000
C       -0.65150000      -2.77580000       2.06190000
C        0.06340000      -3.74350000       1.11060000
O        1.16750000      -2.82350000       0.93200000
C        0.65080000      -1.93240000       1.94670000
H       -0.91790000       1.71570000       0.25180000
H       -0.36220000       1.35300000      -1.44270000
H        2.03190000       1.18180000      -0.60520000
H        1.45630000       1.54870000       1.08180000
H        0.57820000      -0.84500000      -0.68430000
H       -0.25110000       0.03810000       2.13670000
H       -2.27440000      -1.23460000       1.89200000
H       -1.77250000      -1.90750000       0.33260000
H       -1.06110000      -3.16570000       2.99220000
H        0.40170000      -4.67870000       1.57650000
H       -0.44370000      -3.97720000       0.16570000
H        1.38010000      -1.75190000       2.74190000
