18
Properties=species:S:1:pos:R:3 gdb_82199=T pbc="F F F"
C       -0.23190000       1.46030000       0.03830000
C        0.11920000       0.00100000      -0.00910000
O       -0.64060000      -0.86650000       0.85040000
C        0.77420000      -0.78220000       1.05300000
C        1.56820000      -1.91250000       0.42020000
N        0.72940000      -2.90900000      -0.28080000
C        1.37520000      -1.82920000      -1.04940000
C        0.40350000      -0.68040000      -1.36920000
O       -0.77920000      -1.11100000      -2.00420000
H        0.58290000       2.07350000      -0.36140000
H       -1.12510000       1.64970000      -0.56670000
H       -0.43820000       1.77360000       1.06490000
H        1.09120000      -0.36080000       2.00390000
H        2.50230000      -2.22360000       0.87470000
H        1.25990000      -3.76890000      -0.39950000
H        2.15420000      -2.08220000      -1.76100000
H        0.88110000       0.03420000      -2.04780000
H       -1.14250000      -1.78560000      -1.41340000
