15
Properties=species:S:1:pos:R:3 gdb_67190=T pbc="F F F"
O       -0.10590000       1.42400000      -0.05270000
C        0.02810000       0.06130000      -0.01730000
C       -1.01960000      -1.01090000       0.04990000
N       -0.47290000      -1.69460000      -1.10950000
C        0.78720000      -0.86930000      -1.01930000
C        1.77440000      -1.68030000      -0.17240000
O        2.74230000      -2.31130000      -0.53550000
N        1.24250000      -1.64990000       1.10690000
C        0.06170000      -0.84450000       1.17520000
H        0.65050000       1.82330000       0.39290000
H       -2.08240000      -0.97150000       0.25850000
H       -0.31940000      -2.69640000      -0.99000000
H        1.16450000      -0.49870000      -1.96990000
H        1.46970000      -2.37480000       1.76950000
H       -0.25550000      -0.47670000       2.14300000
