15
Properties=species:S:1:pos:R:3 gdb_32397=T pbc="F F F"
O        0.32290000       1.02150000       0.79020000
C        0.05290000       0.02610000      -0.18600000
C       -1.37460000      -0.44400000      -0.15760000
C       -2.19690000      -0.44420000       0.95680000
N       -3.40770000      -0.95450000       0.59960000
C       -3.39080000      -1.28920000      -0.73890000
C       -2.13240000      -0.97560000      -1.22850000
C       -4.52030000      -1.83550000      -1.38340000
N       -5.45610000      -2.28400000      -1.90110000
H       -0.25300000       1.77060000       0.60290000
H        0.31060000       0.36840000      -1.20020000
H        0.73800000      -0.79680000       0.04990000
H       -1.99690000      -0.11760000       1.96400000
H       -4.20590000      -1.05900000       1.20280000
H       -1.80910000      -1.11920000      -2.24790000
