19
Properties=species:S:1:pos:R:3 gdb_120183=T pbc="F F F"
O       -0.01190000       1.42210000      -0.24720000
C        0.01140000       0.02170000      -0.02390000
C       -1.41600000      -0.49380000      -0.18510000
C       -1.49640000      -2.01020000      -0.05570000
C       -1.38660000      -2.71850000       1.35440000
C       -2.86410000      -2.26460000       1.61770000
C       -2.89130000      -2.72450000       0.11850000
C       -2.04730000      -3.90250000       0.63130000
O       -1.95720000      -5.08600000       0.52890000
H        0.88340000       1.75890000      -0.14910000
H        0.67520000      -0.48750000      -0.74190000
H        0.38160000      -0.21680000       0.98630000
H       -2.05190000       0.02950000       0.53340000
H       -1.77170000      -0.20530000      -1.18160000
H       -0.86390000      -2.47030000      -0.82290000
H       -0.54900000      -2.71190000       2.04880000
H       -3.44510000      -2.85470000       2.32870000
H       -3.00650000      -1.19860000       1.78500000
H       -3.73320000      -2.71850000      -0.57070000
