13
Properties=species:S:1:pos:R:3 gdb_21557=T pbc="F F F"
N        0.03910000       1.34520000       0.14470000
C       -0.06470000      -0.01560000       0.05670000
C       -1.23160000      -0.71730000       0.03730000
C       -1.19270000      -2.15200000      -0.00020000
N       -2.22310000      -2.91350000      -0.01820000
N        0.14500000      -2.61700000      -0.01700000
N        1.26770000      -1.89380000      -0.01240000
N        1.19620000      -0.63030000       0.02530000
H        0.94020000       1.72480000      -0.09980000
H       -0.76040000       1.90300000      -0.10440000
H       -2.20200000      -0.23770000       0.05460000
H       -1.96850000      -3.90130000      -0.04560000
H        0.32210000      -3.61130000      -0.04980000
