20
Properties=species:S:1:pos:R:3 gdb_119586=T pbc="F F F"
O       -0.15130000       1.50390000      -0.01890000
C       -0.02340000       0.10370000      -0.21300000
C       -1.35230000      -0.54140000       0.17700000
C       -1.29580000      -2.03770000       0.07250000
C       -1.58000000      -2.78970000      -1.16970000
N       -2.52810000      -2.93520000      -0.04940000
C       -1.86190000      -3.91660000       0.87830000
C       -0.65550000      -2.96080000       1.09940000
O        0.65100000      -3.37540000       0.75850000
H        0.68250000       1.91730000      -0.26030000
H        0.20870000      -0.13860000      -1.26220000
H        0.78810000      -0.31650000       0.40180000
H       -1.60040000      -0.23880000       1.20160000
H       -2.14610000      -0.15400000      -0.47050000
H       -1.99020000      -2.22200000      -1.99960000
H       -0.96090000      -3.63700000      -1.45430000
H       -2.47510000      -4.08130000       1.76680000
H       -1.62640000      -4.87710000       0.40820000
H       -0.67770000      -2.51480000       2.10250000
H        1.00320000      -3.90150000       1.48370000
