13
Properties=species:S:1:pos:R:3 gdb_127777=T pbc="F F F"
C       -0.01130000       1.44210000      -0.01700000
N       -0.00710000      -0.00300000       0.06240000
N       -0.04930000      -0.77870000      -1.09830000
N       -0.03480000      -2.03390000      -0.78300000
C        0.01520000      -2.11960000       0.57860000
C        0.03260000      -0.84950000       1.09740000
O        0.08160000      -0.81370000       2.42090000
N        0.09870000      -2.20360000       2.83550000
C        0.05890000      -2.93230000       1.74620000
H        0.90020000       1.85500000       0.42340000
H       -0.05710000       1.70200000      -1.07450000
H       -0.88220000       1.85350000       0.50030000
H        0.06450000      -4.00730000       1.85900000
