21
Properties=species:S:1:pos:R:3 gdb_119746=T pbc="F F F"
C        0.19980000       1.53780000       0.13040000
C        0.05870000       0.05830000      -0.02750000
C       -1.04230000      -0.69430000      -0.10710000
C       -2.48100000      -0.27930000      -0.05910000
C       -3.20610000      -0.43780000      -1.39940000
O       -4.54940000      -0.02620000      -1.20370000
C       -0.63770000      -2.14320000      -0.23940000
O        0.78360000      -2.15530000      -0.25760000
C        1.27390000      -0.83020000      -0.10280000
H        0.77510000       1.78460000       1.03180000
H        0.74510000       1.97520000      -0.71580000
H       -0.76740000       2.04080000       0.20040000
H       -3.02260000      -0.87960000       0.68410000
H       -2.57570000       0.76500000       0.25390000
H       -2.70190000       0.17580000      -2.16240000
H       -3.15530000      -1.48510000      -1.73560000
H       -5.01880000      -0.12210000      -2.03740000
H       -1.01280000      -2.74920000       0.60340000
H       -1.01990000      -2.61270000      -1.16030000
H        1.92820000      -0.57220000      -0.95230000
H        1.89300000      -0.75700000       0.80780000
