16
Properties=species:S:1:pos:R:3 gdb_35303=T pbc="F F F"
C        0.03860000      -1.25540000      -0.16850000
C        0.03540000      -0.05910000      -0.05120000
C        0.01400000       1.38410000       0.08030000
C       -0.26150000       2.02620000       1.49900000
C        1.06040000       2.80150000       1.36410000
N        2.11500000       1.75030000       1.23910000
C        1.35530000       2.14440000       0.04630000
C        1.35120000       4.11280000       1.82350000
C        1.57950000       5.22350000       2.22790000
H        0.05350000      -2.31260000      -0.26530000
H       -0.67370000       1.81830000      -0.65170000
H       -1.14550000       2.66430000       1.49820000
H       -0.29150000       1.32950000       2.33700000
H        3.01300000       2.23250000       1.19990000
H        1.84790000       2.54680000      -0.83030000
H        1.78350000       6.20310000       2.58320000
