14
Properties=species:S:1:pos:R:3 gdb_17594=T pbc="F F F"
O       -0.32310000       1.38110000       0.00320000
C       -0.10410000       0.02030000      -0.02360000
C       -0.31220000      -0.87860000       1.18600000
C       -1.19050000      -1.08180000      -0.01900000
O       -2.55540000      -0.96440000       0.09050000
C       -0.42420000      -1.79670000      -1.11130000
O       -0.29100000      -0.90970000      -2.23420000
C        0.60610000      -0.73920000      -1.12320000
H        0.30190000       1.78550000       0.61390000
H        0.42490000      -1.61690000       1.49110000
H       -0.82720000      -0.38290000       2.00410000
H       -2.88130000      -0.57150000      -0.72840000
H       -0.30520000      -2.85820000      -1.29360000
H        1.66570000      -0.84420000      -1.32590000
