21
Properties=species:S:1:pos:R:3 gdb_82925=T pbc="F F F"
C        1.10510000       2.62300000      -0.18230000
N        0.88530000       1.19960000      -0.38890000
C        1.98820000       0.24510000      -0.39250000
C        3.34130000       0.64580000       0.20180000
C        3.07670000       0.81220000       1.69500000
N        2.65220000      -0.37740000       2.45000000
C        1.63040000       0.58960000       1.99780000
C        0.85160000       1.28930000       3.08340000
C        0.95450000       0.22620000       0.69670000
H        1.86430000       2.88550000       0.56680000
H        1.40000000       3.07040000      -1.13710000
H        0.15800000       3.08100000       0.12020000
H        1.97630000      -0.46260000      -1.21740000
H        4.09330000      -0.12880000       0.00910000
H        3.72690000       1.57250000      -0.24010000
H        3.67790000       1.51820000       2.26170000
H        2.66030000      -1.19970000       1.84820000
H        1.49090000       1.47750000       3.94940000
H        0.44470000       2.24280000       2.73150000
H        0.01110000       0.66990000       3.41680000
H        0.13540000      -0.49150000       0.72690000
