16
Properties=species:S:1:pos:R:3 gdb_99459=T pbc="F F F"
C        0.09000000       1.56560000      -0.20020000
C        0.08110000       0.03630000      -0.19520000
C       -1.31680000      -0.55870000       0.06660000
C       -2.27970000      -0.19380000      -0.97450000
N       -3.01860000       0.10140000      -1.81280000
C       -1.27090000      -2.09780000       0.24550000
O       -0.22540000      -2.70060000       0.26980000
C       -2.55160000      -2.74450000       0.42620000
C       -3.62590000      -3.26230000       0.58630000
H        1.10230000       1.93840000      -0.37830000
H       -0.55930000       1.96860000      -0.98330000
H       -0.24990000       1.97030000       0.75960000
H        0.45350000      -0.35480000      -1.14680000
H        0.74730000      -0.35410000       0.57860000
H       -1.71120000      -0.16400000       1.01560000
H       -4.57210000      -3.72900000       0.72070000
