19
Properties=species:S:1:pos:R:3 gdb_81216=T pbc="F F F"
O        0.06610000       1.38910000      -0.22320000
C        0.04510000       0.00670000       0.00110000
C        0.02880000      -0.59220000       1.42260000
C       -1.49310000      -0.16700000       1.51300000
C       -1.31370000      -0.78710000       0.09120000
C       -1.98130000      -1.36030000      -1.14560000
C       -0.97520000      -2.48400000      -1.44470000
C       -0.12100000      -2.73880000      -0.44010000
C       -0.51370000      -1.91830000       0.76600000
H       -0.52700000       1.82480000       0.39650000
H        0.78360000      -0.41260000      -0.68200000
H        0.77630000      -0.48280000       2.21080000
H       -2.11310000      -0.73150000       2.21410000
H       -1.71530000       0.90110000       1.60250000
H       -2.98540000      -1.76870000      -0.96530000
H       -2.06520000      -0.64310000      -1.96980000
H       -0.98360000      -3.01220000      -2.39300000
H        0.63470000      -3.51620000      -0.45910000
H       -1.07240000      -2.52600000       1.48910000
