20
Properties=species:S:1:pos:R:3 gdb_96611=T pbc="F F F"
C        0.10420000       1.41090000       0.19270000
N        0.00920000      -0.03540000       0.17210000
C       -1.10390000      -0.64890000       0.16090000
N       -1.14970000      -2.04000000       0.29540000
C        0.13450000      -2.70520000       0.47490000
C       -2.06740000      -2.78000000      -0.56840000
C       -2.47290000       0.03830000       0.12830000
N       -3.29170000      -0.34390000       1.14920000
O       -2.77400000       0.88170000      -0.69300000
H        0.63410000       1.73810000      -0.70970000
H       -0.84950000       1.94700000       0.23540000
H        0.72600000       1.71130000       1.04480000
H        0.70390000      -2.19690000       1.25280000
H       -0.04940000      -3.74360000       0.76640000
H        0.74170000      -2.69490000      -0.44170000
H       -3.01930000      -2.25570000      -0.66140000
H       -1.65500000      -2.92610000      -1.57880000
H       -2.26040000      -3.76580000      -0.13390000
H       -3.01650000      -1.07180000       1.78590000
H       -4.20280000       0.07830000       1.22740000
