17
Properties=species:S:1:pos:R:3 gdb_105831=T pbc="F F F"
C        0.05450000       1.52790000      -0.04480000
C        0.09140000       0.02040000       0.06780000
C        1.30920000      -0.81360000      -0.10910000
O        2.48400000      -0.09790000       0.37470000
C        1.97490000      -0.14320000       1.66420000
O        2.52910000       0.14770000       2.67660000
C        0.66510000      -0.76950000       1.26270000
C       -0.07420000      -1.76420000       2.11300000
O        0.78800000      -2.73130000       2.68440000
H        1.00950000       1.97220000       0.24290000
H       -0.15600000       1.82360000      -1.07770000
H       -0.72950000       1.94750000       0.59260000
H       -0.80300000      -0.48130000      -0.30300000
H        1.48830000      -1.63630000      -0.78690000
H       -0.64770000      -1.22980000       2.88620000
H       -0.79660000      -2.31380000       1.50030000
H        1.37450000      -2.27310000       3.29720000
