19
Properties=species:S:1:pos:R:3 gdb_68198=T pbc="F F F"
C       -0.03610000       1.54650000       0.05900000
C        0.01680000       0.03710000       0.02080000
C        0.98150000      -0.77590000      -0.88780000
N        0.77030000      -1.92640000       0.08150000
C        0.65460000      -0.83940000       1.13480000
C       -0.68890000      -2.18920000      -0.14020000
C       -1.29720000      -0.73580000      -0.21470000
C       -0.91740000      -2.98820000      -1.34270000
N       -1.12120000      -3.60490000      -2.29860000
H        0.95700000       1.97280000       0.23480000
H       -0.41240000       1.95260000      -0.88630000
H       -0.69840000       1.90000000       0.85710000
H        0.70140000      -0.98370000      -1.92430000
H        2.02020000      -0.44280000      -0.83640000
H        1.65340000      -0.51530000       1.43470000
H        0.06250000      -1.10500000       2.01660000
H       -1.07530000      -2.74920000       0.71590000
H       -2.04280000      -0.56160000       0.56550000
H       -1.75030000      -0.51650000      -1.18430000
