20
Properties=species:S:1:pos:R:3 gdb_88694=T pbc="F F F"
C       -0.11120000       1.55310000      -0.09800000
C        0.00790000       0.04820000       0.01040000
C        1.32680000      -0.64830000      -0.21970000
C        0.71290000      -0.64060000       1.16210000
C        1.34870000       0.12400000       2.27780000
C        0.73750000       0.14870000       3.64710000
C        2.04060000      -0.60930000       3.42920000
C        2.03970000      -2.04360000       3.47620000
N        2.03800000      -3.20050000       3.51100000
H        0.80490000       2.06140000       0.21710000
H       -0.30470000       1.84990000      -1.13450000
H       -0.93300000       1.93680000       0.51680000
H       -0.86770000      -0.48330000      -0.35370000
H        1.34960000      -1.58130000      -0.77140000
H        2.19760000      -0.01860000      -0.37900000
H        0.26940000      -1.57920000       1.48260000
H        1.87250000       1.02680000       1.98000000
H        0.79140000       1.05490000       4.23940000
H       -0.15150000      -0.44980000       3.81160000
H        2.94520000      -0.15910000       3.82350000
