17
Properties=species:S:1:pos:R:3 gdb_92408=T pbc="F F F"
O        0.16410000       1.32670000      -0.27520000
C        0.09370000      -0.03710000       0.00960000
C        0.23570000      -0.43360000       1.51190000
C       -1.27860000      -0.67090000       1.57670000
N       -2.04120000       0.61280000       1.56060000
C       -2.49670000       0.38950000       0.16240000
C       -1.38400000      -0.66500000       0.00700000
C       -1.59450000      -1.83140000      -0.80330000
N       -1.74630000      -2.77710000      -1.45330000
H       -0.32340000       1.78390000       0.42430000
H        0.76980000      -0.54420000      -0.68010000
H        0.80290000      -1.36130000       1.63320000
H        0.64300000       0.33480000       2.17300000
H       -1.68880000      -1.47220000       2.19490000
H       -2.77920000       0.68480000       2.25010000
H       -3.49150000      -0.06240000       0.07510000
H       -2.43170000       1.26730000      -0.48700000
