17
Properties=species:S:1:pos:R:3 gdb_46515=T pbc="F F F"
O       -0.06450000      -0.14390000      -0.25730000
C       -0.02530000       1.05380000      -0.24320000
C       -1.15610000       1.96600000       0.20060000
C       -1.36130000       3.09570000      -0.82340000
C       -0.05310000       3.84270000      -1.05600000
C        0.08690000       4.83220000      -2.12990000
O       -0.02990000       5.24260000      -0.76140000
C        1.16390000       3.11570000      -0.50390000
O        1.08710000       1.69840000      -0.69670000
H       -2.04890000       1.35280000       0.32360000
H       -0.90730000       2.38740000       1.18280000
H       -1.71630000       2.66310000      -1.76500000
H       -2.11970000       3.80540000      -0.48240000
H        1.05940000       5.00390000      -2.58950000
H       -0.77140000       5.06590000      -2.75900000
H        2.08420000       3.43500000      -0.99490000
H        1.25670000       3.34280000       0.56600000
