17
Properties=species:S:1:pos:R:3 gdb_37598=T pbc="F F F"
C       -0.04550000       1.56810000      -0.07080000
C        1.46780000       1.81120000       0.01940000
O        1.91230000       0.92630000      -1.02670000
C        1.48710000      -0.28680000      -0.40220000
C        2.25510000      -0.30030000       0.92620000
C        1.22700000       0.01910000       1.95270000
O       -0.06260000      -0.26440000       1.47500000
C       -0.00330000       0.03250000       0.08360000
C        2.02410000       1.15680000       1.31870000
H       -0.64670000       2.01420000       0.72310000
H       -0.41220000       1.89010000      -1.04780000
H        1.82730000       2.82160000      -0.17190000
H        1.62090000      -1.13200000      -1.07340000
H        3.16880000      -0.86010000       1.07260000
H        1.33230000      -0.19810000       3.00890000
H       -0.79130000      -0.52330000      -0.42260000
H        2.73220000       1.69870000       1.93350000
