14
Properties=species:S:1:pos:R:3 gdb_133086=T pbc="F F F"
C       -0.02030000       1.41210000       0.01780000
O        0.01480000      -0.01700000      -0.02590000
C        0.61600000      -0.58440000      -1.07760000
C        0.65820000      -1.99080000      -1.13430000
N        1.23820000      -2.61290000      -2.14810000
C        1.78180000      -1.86440000      -3.11510000
C        1.72150000      -0.48170000      -3.02630000
F        2.25940000       0.26370000      -3.98330000
N        1.15170000       0.16850000      -2.03090000
H        0.99110000       1.82780000       0.03100000
H       -0.55410000       1.81660000      -0.84660000
H       -0.54570000       1.66090000       0.93990000
H        0.21280000      -2.58370000      -0.34240000
H        2.26080000      -2.35780000      -3.95280000
