18
Properties=species:S:1:pos:R:3 gdb_127392=T pbc="F F F"
C       -0.05610000       1.44040000       0.03820000
N       -0.07820000       0.00000000       0.15230000
C       -1.42630000      -0.60150000       0.16910000
C       -1.15240000      -1.86390000       0.91660000
C        0.07310000      -1.85750000       1.52860000
C        0.76140000      -0.55920000       1.23910000
C        0.14350000      -3.08860000       2.20880000
N       -0.96850000      -3.80390000       2.02180000
N       -1.75320000      -3.02980000       1.22900000
H        0.97680000       1.78770000      -0.06830000
H       -0.60440000       1.75410000      -0.85670000
H       -0.50100000       1.96120000       0.90890000
H       -2.16990000       0.02650000       0.69850000
H       -1.79780000      -0.74480000      -0.85470000
H        1.79830000      -0.65960000       0.89390000
H        0.77990000       0.09840000       2.12880000
H        0.93470000      -3.49930000       2.81870000
H       -2.65010000      -3.38500000       0.94580000
