15
Properties=species:S:1:pos:R:3 gdb_20799=T pbc="F F F"
C        0.08910000       1.59010000       0.25420000
C        0.00640000       0.07640000      -0.01440000
C       -1.38740000      -0.43590000      -0.10770000
C       -2.15710000      -0.88660000      -1.14200000
N       -1.84550000      -1.05890000      -2.49370000
N       -3.37430000      -1.24330000      -0.61100000
N       -3.39020000      -1.04250000       0.63710000
O       -2.13810000      -0.50250000       1.00460000
H        1.13300000       1.90880000       0.32220000
H       -0.39070000       2.16060000      -0.54690000
H       -0.40920000       1.84480000       1.19340000
H        0.51450000      -0.17360000      -0.95160000
H        0.52860000      -0.46450000       0.78360000
H       -1.61240000      -0.19200000      -2.96270000
H       -2.61890000      -1.49720000      -2.97890000
