17
Properties=species:S:1:pos:R:3 gdb_44862=T pbc="F F F"
O        0.00710000       0.00500000       0.10600000
C        0.01050000       1.20760000      -0.00650000
N       -1.09990000       2.04030000      -0.07820000
C       -0.64560000       3.43980000       0.02980000
C        0.62070000       3.34620000      -0.84760000
C        1.21370000       2.18150000      -0.02630000
C        1.16790000       2.75560000       1.40790000
N        1.27730000       4.23100000       1.50120000
C       -0.05520000       3.59180000       1.44880000
H       -1.97640000       1.72040000       0.30640000
H       -1.41360000       4.15030000      -0.27450000
H        0.37570000       3.06120000      -1.87160000
H        1.23000000       4.24610000      -0.82740000
H        2.14840000       1.72820000      -0.34860000
H        1.47980000       2.13880000       2.24250000
H        1.48630000       4.47910000       2.46580000
H       -0.71260000       3.62610000       2.31090000
