19
Properties=species:S:1:pos:R:3 gdb_95904=T pbc="F F F"
C       -0.05570000       1.52930000      -0.09330000
C       -0.00350000       0.00600000       0.03500000
O        0.66560000      -0.51700000      -1.12290000
C        1.49160000      -1.62930000      -0.77010000
C        1.24920000      -1.89830000       0.72270000
C        0.83250000      -0.51440000       1.23520000
O        1.94440000       0.35120000       1.40070000
C       -1.36600000      -0.55250000       0.11900000
C       -2.47720000      -1.00660000       0.18670000
H        0.95870000       1.92560000      -0.13090000
H       -0.58750000       1.79580000      -1.00930000
H       -0.58410000       1.96740000       0.75760000
H        1.23300000      -2.48830000      -1.39880000
H        2.53780000      -1.36190000      -0.96280000
H        0.42860000      -2.60640000       0.86710000
H        2.13220000      -2.28720000       1.23770000
H        0.22470000      -0.55880000       2.14710000
H        2.51370000      -0.02570000       2.07830000
H       -3.45990000      -1.40670000       0.23580000
