16
Properties=species:S:1:pos:R:3 gdb_66774=T pbc="F F F"
O        0.23730000       1.43420000       0.15280000
C        0.08450000       0.07050000       0.05690000
C       -1.20090000      -0.84630000       0.12060000
C       -0.44700000      -1.82190000      -0.70210000
C        0.61480000      -0.79930000      -1.12500000
O        1.95550000      -1.15700000      -0.87720000
C        2.08000000      -1.28630000       0.55400000
C        0.72290000      -0.85630000       1.09990000
N       -0.36330000      -1.87210000       0.80260000
H        0.01310000       1.84020000      -0.69160000
H       -2.25440000      -0.69770000       0.31040000
H       -0.77910000      -2.71870000      -1.20850000
H        0.51410000      -0.39880000      -2.13550000
H        2.30280000      -2.32670000       0.82150000
H        2.90000000      -0.64590000       0.89980000
H        0.69010000      -0.55190000       2.14550000
