19
Properties=species:S:1:pos:R:3 gdb_99614=T pbc="F F F"
C        0.19270000       1.56690000      -0.68570000
O       -0.22930000       0.22630000      -0.84030000
C        0.80480000      -0.66690000      -1.22030000
C        1.84060000      -0.80120000      -0.18550000
C        2.68330000      -0.90560000       0.66520000
C        0.13350000      -2.00650000      -1.53000000
C       -0.57470000      -2.68150000      -0.38180000
C       -0.26590000      -2.25250000      -2.92090000
O        0.92000000      -2.84540000      -2.37880000
H        0.94190000       1.66900000       0.11010000
H        0.61720000       1.96420000      -1.62050000
H       -0.69380000       2.14800000      -0.42270000
H        1.28840000      -0.31590000      -2.14640000
H        3.43340000      -1.00360000       1.41110000
H       -1.34800000      -2.02150000       0.02020000
H       -1.03490000      -3.61450000      -0.71470000
H        0.13270000      -2.90830000       0.42130000
H       -1.08150000      -2.94390000      -3.12660000
H       -0.10330000      -1.48820000      -3.67980000
