17
Properties=species:S:1:pos:R:3 gdb_54373=T pbc="F F F"
C        0.13710000       1.41440000       0.41000000
C        0.03090000      -0.00090000      -0.12320000
O        0.95040000      -0.56050000      -0.68680000
C       -1.26150000      -0.68030000       0.05660000
C       -1.58760000      -2.17450000       0.28220000
C       -2.58250000      -1.81140000       1.38880000
C       -2.69790000      -0.44690000       0.66530000
O       -3.31900000      -0.79340000      -0.60840000
C       -2.10300000      -1.45070000      -0.94100000
H        1.13400000       1.80890000       0.21040000
H       -0.61720000       2.05510000      -0.06110000
H       -0.05910000       1.43150000       1.48850000
H       -0.87840000      -2.98930000       0.22780000
H       -3.50680000      -2.39060000       1.47440000
H       -2.08640000      -1.72190000       2.35760000
H       -3.11550000       0.44810000       1.12060000
H       -1.89260000      -1.70820000      -1.96990000
