20
Properties=species:S:1:pos:R:3 gdb_133654=T pbc="F F F"
C        0.23990000       1.47300000      -0.29460000
C       -0.02410000      -0.01950000      -0.03330000
C        0.83390000      -0.48280000       1.15670000
C       -1.54410000      -0.29380000       0.14250000
C       -2.37800000       0.20050000      -1.05270000
C       -1.84470000      -1.77530000       0.37600000
F       -1.41070000      -2.20960000       1.57250000
F       -3.16580000      -2.02770000       0.34640000
F       -1.27460000      -2.55450000      -0.56120000
H        1.31620000       1.65400000      -0.37300000
H       -0.21920000       1.82750000      -1.22010000
H       -0.13800000       2.09040000       0.52960000
H        0.29760000      -0.57930000      -0.92110000
H        0.50430000      -0.00870000       2.08860000
H        0.80300000      -1.56250000       1.30350000
H        1.87720000      -0.19590000       0.99210000
H       -1.89000000       0.21380000       1.05260000
H       -2.01790000      -0.24220000      -1.98710000
H       -3.42820000      -0.06950000      -0.93280000
H       -2.31910000       1.28550000      -1.14370000
