19
Properties=species:S:1:pos:R:3 gdb_95095=T pbc="F F F"
C        0.04040000       1.60600000      -0.02500000
C        0.06530000       0.07850000       0.02490000
C        0.76970000      -0.60610000      -1.16710000
C        1.27980000      -1.94210000      -0.58700000
N        1.52160000      -1.75280000       0.86100000
C        2.30220000      -0.55880000       1.17910000
C        0.80780000      -0.50740000       1.23440000
C        0.13130000      -0.47330000       2.50790000
N       -0.43050000      -0.40020000       3.51590000
H        1.05490000       2.01570000      -0.07560000
H       -0.50910000       1.95610000      -0.90410000
H       -0.44800000       2.02150000       0.86170000
H       -0.96710000      -0.28750000       0.08490000
H        0.09380000      -0.75350000      -2.01260000
H        1.59640000       0.01430000      -1.52800000
H        0.52050000      -2.72480000      -0.68120000
H        2.19360000      -2.30430000      -1.06670000
H        2.86300000      -0.61810000       2.10610000
H        2.79440000      -0.01070000       0.37980000
