17
Properties=species:S:1:pos:R:3 gdb_85691=T pbc="F F F"
C       -0.88080000       1.23620000      -0.02500000
C       -0.01730000      -0.01150000      -0.02180000
N        1.28770000       0.11660000      -0.73850000
C        2.01330000      -0.61390000       0.32880000
C        3.29100000      -0.03000000       0.73390000
N        4.29340000       0.42530000       1.08560000
C        0.78290000      -0.38250000       1.23300000
C        0.71990000       0.10590000       2.60550000
O        0.37130000      -1.24980000       2.24960000
H       -0.30600000       2.10280000       0.31230000
H       -1.25230000       1.44470000      -1.03340000
H       -1.74900000       1.10480000       0.62970000
H       -0.60200000      -0.88490000      -0.34720000
H        1.33270000      -0.32430000      -1.65010000
H        2.15490000      -1.68820000       0.14660000
H        1.63840000       0.21440000       3.17860000
H       -0.11400000       0.73010000       2.91940000
