19
Properties=species:S:1:pos:R:3 gdb_50573=T pbc="F F F"
O       -0.86680000       1.07890000       0.38070000
C        0.24970000       0.72500000       0.10630000
C        1.44450000       1.66140000       0.02540000
C        1.34550000       2.86230000       0.97490000
C        2.70370000       3.53290000       1.17180000
C        3.71410000       2.91080000       2.10890000
C        3.95080000       2.86620000       0.62480000
C        3.78590000       1.55420000      -0.11470000
O        2.59760000       0.87390000       0.26360000
H        0.50090000      -0.33300000      -0.12760000
H        1.47270000       2.02790000      -1.02030000
H        0.62300000       3.57100000       0.56150000
H        0.93500000       2.53060000       1.93460000
H        2.68740000       4.61750000       1.14570000
H        4.33270000       3.56490000       2.71310000
H        3.42680000       1.98220000       2.59230000
H        4.72600000       3.50960000       0.21900000
H        3.77390000       1.73590000      -1.20320000
H        4.60910000       0.86600000       0.10360000
