16
Properties=species:S:1:pos:R:3 gdb_28189=T pbc="F F F"
O        0.07460000       1.31730000       0.21230000
C        0.06710000      -0.02520000      -0.00040000
C        0.07710000      -0.79760000      -1.14210000
C        0.05950000      -2.15180000      -0.67880000
C        0.04000000      -2.13660000       0.69500000
C        0.02050000      -3.51540000       1.26940000
C        0.03200000      -4.34580000      -0.01150000
C        0.05400000      -3.55210000      -1.10200000
N        0.04480000      -0.82780000       1.11680000
H        0.09470000       1.75590000      -0.64330000
H        0.09440000      -0.42750000      -2.15570000
H        0.88990000      -3.74590000       1.90090000
H       -0.87020000      -3.73150000       1.87580000
H        0.02300000      -5.42720000      -0.00120000
H        0.06590000      -3.89480000      -2.12930000
H        0.03410000      -0.47430000       2.05780000
