19
Properties=species:S:1:pos:R:3 gdb_41208=T pbc="F F F"
C        0.01330000       1.59570000       0.09400000
O        1.49730000       1.50660000      -0.02500000
C        1.20580000       0.31240000      -0.87940000
C        1.20720000      -1.24540000      -1.15960000
C        1.71350000      -2.17510000      -0.07790000
C        1.51260000      -1.50640000       1.29130000
C        0.22930000      -0.65620000       1.28680000
C        0.02620000       0.03230000      -0.07210000
O       -0.28250000      -1.08820000      -1.02980000
H       -0.27920000       2.01580000       1.05970000
H       -0.41200000       2.15950000      -0.74270000
H        0.92810000       0.73570000      -1.85130000
H        1.47120000      -1.54500000      -2.17640000
H        1.15210000      -3.11290000      -0.15630000
H        2.76920000      -2.41290000      -0.25020000
H        1.50120000      -2.24370000       2.09920000
H        2.35770000      -0.83580000       1.47900000
H       -0.65700000      -1.28370000       1.43810000
H        0.26080000       0.07050000       2.10290000
