21
Properties=species:S:1:pos:R:3 gdb_59412=T pbc="F F F"
C       -0.05730000       1.39980000      -0.27190000
C       -0.01000000      -0.08580000       0.11580000
C        0.60770000      -0.27140000       1.51010000
C       -1.39670000      -0.69930000       0.05040000
C       -1.99720000      -1.14540000      -1.24460000
C       -1.56430000      -2.19350000      -0.23600000
O       -0.45670000      -2.96750000      -0.59680000
C       -2.63870000      -2.92100000       0.49210000
O       -3.66910000      -2.42010000       0.87540000
H        0.94550000       1.83920000      -0.25760000
H       -0.47390000       1.53490000      -1.27440000
H       -0.68020000       1.96860000       0.42820000
H        0.62070000      -0.61040000      -0.61220000
H       -0.00080000       0.22140000       2.27710000
H        0.68410000      -1.32960000       1.78470000
H        1.61380000       0.15750000       1.55620000
H       -2.10750000      -0.32750000       0.78580000
H       -3.06430000      -1.02790000      -1.39450000
H       -1.37960000      -1.09680000      -2.13530000
H        0.11160000      -3.07140000       0.17420000
H       -2.40830000      -3.99810000       0.65690000
