11
Properties=species:S:1:pos:R:3 gdb_21591=T pbc="F F F"
N        0.04060000       1.29830000      -0.11930000
C       -0.03730000      -0.02770000      -0.01160000
C       -1.18460000      -0.76660000       0.09280000
N       -1.08250000      -2.12480000       0.19580000
N       -0.14000000      -2.84470000       0.21480000
O        1.35430000      -1.98930000       0.08740000
C        1.33040000      -0.69520000      -0.01380000
O        2.31190000       0.02100000      -0.10970000
H        0.97710000       1.67570000      -0.18630000
H       -0.76630000       1.89740000      -0.13380000
H       -2.18690000      -0.36340000       0.10130000
