15
Properties=species:S:1:pos:R:3 gdb_29842=T pbc="F F F"
C       -0.03970000       1.45750000       0.03480000
N       -0.00120000       0.00820000      -0.00630000
C        0.01490000      -0.79130000      -1.12700000
C       -0.00350000      -2.08160000      -0.65930000
N       -0.00890000      -2.10060000       0.72650000
C       -0.00640000      -0.83750000       1.07550000
N       -0.09700000      -0.35010000       2.37430000
C       -0.00870000      -3.26430000      -1.44290000
N       -0.01140000      -4.21640000      -2.10230000
H        0.96510000       1.88840000       0.10910000
H       -0.51530000       1.83430000      -0.87220000
H       -0.62840000       1.77200000       0.89960000
H        0.03850000      -0.38410000      -2.12350000
H       -0.12330000      -1.12470000       3.02600000
H        0.64650000       0.28940000       2.63000000
