14
Properties=species:S:1:pos:R:3 gdb_132439=T pbc="F F F"
C       -0.03090000       1.50300000      -0.00400000
C       -0.00870000       0.00530000      -0.03430000
N       -0.04120000      -0.63430000      -1.16620000
C       -0.02110000      -2.00300000      -1.20540000
C        0.03340000      -2.70970000      -0.05250000
F        0.05690000      -4.03010000       0.01820000
N        0.06840000      -2.07480000       1.14580000
C        0.05130000      -0.67560000       1.27440000
O        0.08410000      -0.14170000       2.36630000
H        0.86110000       1.89120000       0.49980000
H       -0.08050000       1.89350000      -1.02070000
H       -0.88790000       1.86360000       0.57530000
H       -0.04950000      -2.49570000      -2.16740000
H        0.10900000      -2.61420000       2.00120000
