15
Properties=species:S:1:pos:R:3 gdb_26838=T pbc="F F F"
N        0.11450000       1.39980000      -0.14880000
C       -0.00750000       0.01160000      -0.06890000
C       -1.14980000      -0.78880000      -0.09520000
O       -2.40070000      -0.23720000      -0.12160000
C       -0.74350000      -2.13040000      -0.07000000
C        0.64970000      -2.14240000      -0.02170000
N        1.06760000      -0.81960000      -0.02370000
C        1.58150000      -3.23600000       0.03510000
O        1.28800000      -4.41720000       0.02130000
H        0.55330000       1.81490000       0.66720000
H       -0.79740000       1.82210000      -0.27630000
H       -3.04670000      -0.93650000      -0.25500000
H       -1.36340000      -3.01390000      -0.06110000
H        2.02540000      -0.51630000      -0.08540000
H        2.65000000      -2.91140000       0.09470000
