15
Properties=species:S:1:pos:R:3 gdb_96906=T pbc="F F F"
C        0.02320000       1.39240000      -0.09240000
N       -0.07520000      -0.06010000      -0.12660000
C        0.55250000      -0.70670000      -0.98340000
O        1.39830000      -0.26410000      -2.02920000
C        1.49400000      -1.61890000      -2.52220000
C        2.15470000      -2.48710000      -1.49870000
C        0.67700000      -2.15000000      -1.34820000
C        1.40020000      -1.85300000      -3.92360000
N        1.33440000      -2.06060000      -5.05950000
H        0.63590000       1.81790000      -0.89460000
H       -0.98510000       1.81440000      -0.15070000
H        0.44230000       1.69440000       0.87310000
H        2.35250000      -3.51020000      -1.80070000
H        2.89360000      -2.03340000      -0.84650000
H       -0.10240000      -2.89680000      -1.32160000
