17
Properties=species:S:1:pos:R:3 gdb_93415=T pbc="F F F"
N        0.06390000       1.40330000       0.06250000
C       -0.01600000       0.03160000       0.07180000
C       -1.16640000      -0.67770000       0.06520000
C       -1.19430000      -2.14360000       0.03420000
O       -2.21820000      -2.79580000      -0.08860000
N        0.05320000      -2.76240000       0.08650000
C        1.17800000      -2.07290000       0.69820000
C        1.32220000      -0.68820000       0.07070000
O        1.84970000      -0.73370000      -1.25090000
H        0.91310000       1.79080000      -0.32200000
H       -0.76600000       1.90580000      -0.21720000
H       -2.13670000      -0.19640000       0.00920000
H       -0.01700000      -3.75980000       0.23170000
H        1.05760000      -1.96040000       1.78750000
H        2.09490000      -2.63940000       0.51340000
H        2.04750000      -0.11000000       0.65270000
H        1.27350000      -1.32290000      -1.75450000
