22
Properties=species:S:1:pos:R:3 gdb_107751=T pbc="F F F"
C        0.02290000       1.59410000       0.04100000
C        0.03610000       0.05940000       0.01610000
C       -1.34690000      -0.54360000       0.00640000
C       -2.32100000      -0.39550000       1.21360000
C       -2.95900000      -1.68890000       0.72050000
N       -2.97210000      -1.70510000      -0.79260000
C       -2.32100000      -0.41370000      -1.18110000
C       -1.74730000      -2.08900000      -0.03260000
C       -0.99230000      -3.36320000      -0.20020000
H        1.04050000       1.99590000       0.03980000
H       -0.49690000       2.00090000      -0.83290000
H       -0.48440000       1.97210000       0.93460000
H        0.58670000      -0.28650000      -0.86890000
H        0.59090000      -0.31570000       0.88640000
H       -1.81070000      -0.55380000       2.16840000
H       -2.93120000       0.51330000       1.26720000
H       -3.70290000      -2.31010000       1.20300000
H       -2.98820000       0.45650000      -1.21860000
H       -1.83950000      -0.54930000      -2.15440000
H       -0.39080000      -3.35700000      -1.11640000
H       -0.31740000      -3.54240000       0.64410000
H       -1.69090000      -4.20350000      -0.26400000
