19
Properties=species:S:1:pos:R:3 gdb_65646=T pbc="F F F"
O       -0.00180000       1.33770000       0.21260000
C        0.02610000      -0.04420000       0.05180000
C        0.35510000      -0.89880000       1.32620000
C       -0.92270000      -1.75360000       1.11000000
C       -2.14790000      -1.28550000       1.93050000
C       -2.45660000      -0.20510000       0.84730000
C       -1.34510000      -0.79720000      -0.06180000
C        0.91180000      -0.40930000      -1.11200000
O        1.44530000       0.42770000      -1.80170000
H        0.50790000       1.70350000      -0.52870000
H        1.30480000      -1.44000000       1.29100000
H        0.34180000      -0.28230000       2.22820000
H       -0.76730000      -2.82500000       0.98120000
H       -2.92820000      -2.04870000       1.99270000
H       -1.93870000      -0.92630000       2.94260000
H       -3.45980000      -0.26300000       0.42070000
H       -2.26690000       0.82810000       1.14320000
H       -1.65220000      -1.13820000      -1.05260000
H        1.03830000      -1.49340000      -1.31110000
