16
Properties=species:S:1:pos:R:3 gdb_15611=T pbc="F F F"
C       -0.01540000       1.41300000      -0.01740000
N       -0.06960000      -0.03710000      -0.00030000
C        0.54950000      -0.62620000       0.94310000
N        1.30920000      -0.10950000       1.97240000
C        1.66500000      -1.08250000       3.00540000
C        1.48630000      -2.43690000       2.29900000
C        0.58590000      -2.13570000       1.09900000
O        0.01640000      -2.93560000       0.40940000
H        1.01630000       1.78750000      -0.11540000
H       -0.59170000       1.79320000      -0.86390000
H       -0.43750000       1.85960000       0.89910000
H        1.25920000       0.86980000       2.20070000
H        2.68940000      -0.91870000       3.35330000
H        1.00120000      -1.00530000       3.87760000
H        2.43990000      -2.81540000       1.91450000
H        1.05420000      -3.21370000       2.93160000
