14
Properties=species:S:1:pos:R:3 gdb_80212=T pbc="F F F"
O       -0.14900000       1.39210000       0.01820000
C       -0.08800000       0.01030000      -0.02980000
C       -1.33730000      -0.76370000       0.02360000
C       -2.46860000      -0.00940000      -0.69260000
C       -1.62820000      -0.06090000      -1.98590000
O       -1.84750000       0.20730000      -3.12660000
C       -0.47450000      -0.77790000      -1.30440000
C        0.38280000      -1.76570000      -1.86090000
N        1.08210000      -2.56980000      -2.31400000
H        0.63210000       1.75500000      -0.41400000
H        0.76810000      -0.44140000       0.47110000
H       -1.47350000      -1.60810000       0.68570000
H       -3.37670000      -0.60520000      -0.81530000
H       -2.71820000       0.97780000      -0.30240000
