23
Properties=species:S:1:pos:R:3 gdb_60538=T pbc="F F F"
C       -0.22280000       1.79400000      -0.34720000
C       -0.10820000       0.27840000      -0.11840000
C       -1.47330000      -0.34650000       0.12340000
C       -1.58700000      -1.69990000       0.77710000
C       -2.01340000      -0.46280000       1.52770000
C        0.65300000      -0.41410000      -1.24900000
C        0.00010000      -0.48020000      -2.61320000
C        2.11870000      -0.50040000      -1.15190000
O        1.30200000      -1.63540000      -0.85170000
H        0.75980000       2.25090000      -0.50360000
H       -0.84150000       2.02210000      -1.22180000
H       -0.68940000       2.27480000       0.51760000
H        0.49360000       0.11190000       0.78430000
H       -2.21160000      -0.12270000      -0.64320000
H       -2.35620000      -2.37950000       0.42700000
H       -0.66420000      -2.18600000       1.07170000
H       -1.38240000      -0.12120000       2.34240000
H       -3.07260000      -0.29570000       1.68980000
H       -0.19130000       0.52050000      -3.01410000
H        0.64520000      -1.01460000      -3.31470000
H       -0.95470000      -1.01210000      -2.55980000
H        2.71900000      -0.58290000      -2.05760000
H        2.63360000      -0.05670000      -0.29970000
