18
Properties=species:S:1:pos:R:3 gdb_12894=T pbc="F F F"
C        0.00480000       1.55050000       0.02090000
C       -0.01500000       0.04980000       0.06270000
C       -1.28250000      -0.81770000      -0.01100000
C       -0.64300000      -1.81590000       1.00940000
C        0.60830000      -0.93510000       1.04890000
C        1.19310000      -0.78070000      -0.34790000
C        1.15690000      -1.81430000      -1.34260000
C        1.12010000      -2.67970000      -2.17850000
H        0.99350000       1.94440000       0.27850000
H       -0.25040000       1.92240000      -0.97880000
H       -0.71890000       1.97420000       0.72680000
H       -2.15640000      -0.30670000       0.40050000
H       -1.53410000      -1.21460000      -0.99840000
H       -1.17630000      -1.83430000       1.96200000
H       -0.49380000      -2.84250000       0.66390000
H        1.22920000      -0.74180000       1.91700000
H        2.11020000      -0.19560000      -0.35010000
H        1.09540000      -3.44210000      -2.91700000
