20
Properties=species:S:1:pos:R:3 gdb_122502=T pbc="F F F"
C        0.45650000       1.19820000       0.30150000
O        0.80710000       0.59350000      -0.92410000
C       -0.10750000      -0.38090000      -1.37600000
C        0.08600000      -1.73980000      -0.68840000
N       -0.84350000      -2.69550000      -1.29050000
C       -0.35120000      -3.59970000      -2.29730000
C       -0.78840000      -4.12550000      -0.95400000
C        0.25050000      -4.69330000      -0.05620000
O        0.06030000      -5.64900000       0.65540000
H       -0.54590000       1.65120000       0.25580000
H        0.47750000       0.49380000       1.14600000
H        1.19050000       1.98520000       0.49160000
H       -1.14810000      -0.04820000      -1.24430000
H        0.07050000      -0.49490000      -2.45110000
H        1.14450000      -2.02520000      -0.78210000
H       -0.14660000      -1.66430000       0.37920000
H       -0.98880000      -3.77730000      -3.15890000
H        0.71950000      -3.60480000      -2.50560000
H       -1.75730000      -4.60930000      -0.86140000
H        1.23940000      -4.18520000      -0.08520000
