18
Properties=species:S:1:pos:R:3 gdb_65769=T pbc="F F F"
C        0.02870000       1.53970000      -0.06270000
C       -0.01920000       0.01780000       0.00730000
O       -1.39830000      -0.42260000       0.03890000
C       -2.11360000      -0.32590000      -1.10150000
N       -3.35740000      -0.55040000      -1.07660000
O        0.67100000      -0.52820000      -1.09700000
C        1.50430000      -1.61180000      -0.67800000
C        1.48910000      -1.54340000       0.82120000
C        0.63420000      -0.60960000       1.21500000
H        1.06310000       1.88340000       0.00880000
H       -0.38910000       1.89110000      -1.01010000
H       -0.55410000       1.96990000       0.75550000
H       -1.51210000      -0.08230000      -1.98250000
H       -3.73630000      -0.46440000      -2.01810000
H        1.11390000      -2.56980000      -1.05250000
H        2.50260000      -1.46720000      -1.11070000
H        2.08450000      -2.19310000       1.44940000
H        0.36710000      -0.33120000       2.22480000
