10
Properties=species:S:1:pos:R:3 gdb_5663=T pbc="F F F"
O       -0.07050000       1.33360000       0.00990000
C        1.25990000       1.69780000      -0.00090000
N        2.13490000       0.72790000      -0.01460000
C        1.31300000      -0.36200000      -0.01220000
C        0.00900000      -0.02130000       0.00220000
N       -0.81300000      -1.11110000       0.00450000
C        0.06210000      -2.08110000      -0.00890000
O        1.39250000      -1.71680000      -0.02000000
H        1.45460000       2.75770000       0.00270000
H       -0.13270000      -3.14100000      -0.01250000
