21
Properties=species:S:1:pos:R:3 gdb_40275=T pbc="F F F"
C       -0.45090000       1.48460000       0.11040000
C        1.05010000       1.35700000       0.16190000
C        0.16940000       0.11530000       0.02060000
O       -0.02330000      -0.62690000       1.18690000
C        0.92710000      -1.64970000       1.45080000
C        0.55410000      -2.95330000       0.74870000
C        0.88930000      -2.99440000      -0.74570000
C        0.43740000      -1.84460000      -1.60830000
C        0.17000000      -0.57470000      -1.29370000
H       -0.96650000       1.70500000       1.03740000
H       -0.91080000       1.89780000      -0.78040000
H        1.63420000       1.68010000      -0.69240000
H        1.52920000       1.49120000       1.12500000
H        1.94040000      -1.31890000       1.17570000
H        0.90660000      -1.79400000       2.53630000
H        1.06670000      -3.78720000       1.24470000
H       -0.52120000      -3.10300000       0.89870000
H        1.98260000      -3.07820000      -0.85990000
H        0.49320000      -3.92560000      -1.17020000
H        0.39390000      -2.08910000      -2.66850000
H       -0.05510000       0.09650000      -2.12130000
