18
Properties=species:S:1:pos:R:3 gdb_70712=T pbc="F F F"
O       -0.03080000       1.37640000       0.09940000
C       -0.02880000      -0.00570000      -0.00660000
C       -0.50790000      -0.63620000      -1.30360000
C       -1.33400000      -0.75630000      -0.04170000
C       -1.40260000      -2.06220000       0.72360000
C       -0.07060000      -2.82510000       0.67730000
N        1.04960000      -1.95190000       1.00460000
C        1.12350000      -0.62300000       0.73230000
O        2.06220000       0.08100000       1.08470000
H        0.85680000       1.58390000       0.43790000
H       -0.84660000       0.07780000      -2.04530000
H        0.00300000      -1.50350000      -1.70720000
H       -2.21960000      -0.13030000       0.00720000
H       -1.65930000      -1.85090000       1.76860000
H       -2.18720000      -2.71290000       0.32080000
H       -0.08660000      -3.64520000       1.40090000
H        0.06610000      -3.28130000      -0.31270000
H        1.85770000      -2.33540000       1.47090000
