18
Properties=species:S:1:pos:R:3 gdb_6289=T pbc="F F F"
C        0.14300000       1.44720000       0.02700000
N       -0.08590000       0.00540000      -0.00520000
C        0.65790000      -0.67690000       1.04910000
C       -1.50220000      -0.34530000      -0.01450000
C       -2.05810000      -0.17260000      -1.45170000
O       -1.19660000      -0.78210000      -2.38160000
C       -3.39760000      -0.77410000      -1.54370000
N       -4.46070000      -1.22380000      -1.58040000
H        1.21430000       1.64910000      -0.05910000
H       -0.35620000       1.93390000      -0.81500000
H       -0.22270000       1.91200000       0.95970000
H        0.34520000      -0.37060000       2.06260000
H        0.52310000      -1.75810000       0.95930000
H        1.72410000      -0.45530000       0.94330000
H       -1.59700000      -1.40030000       0.25560000
H       -2.10420000       0.24200000       0.69840000
H       -2.17810000       0.90120000      -1.67170000
H       -0.32180000      -0.70510000      -1.96170000
