18
Properties=species:S:1:pos:R:3 gdb_44205=T pbc="F F F"
O        0.02850000       0.04840000      -0.13370000
C       -0.01170000       1.23700000      -0.07860000
C       -1.12200000       2.30340000      -0.06770000
C        0.02540000       3.30560000       0.03340000
N        1.07780000       2.17800000       0.12250000
C        1.01390000       3.12080000      -1.03310000
C        0.79640000       2.80890000      -2.52080000
C        1.69060000       4.04290000      -2.84550000
C        2.17130000       4.06410000      -1.36360000
H       -1.77970000       2.35520000      -0.93910000
H       -1.72950000       2.23300000       0.83830000
H        0.07160000       4.12870000       0.73740000
H        1.26650000       1.86430000      -2.80840000
H       -0.23080000       2.81760000      -2.89280000
H        2.45900000       3.90090000      -3.60660000
H        1.09960000       4.92450000      -3.10320000
H        2.19010000       5.02650000      -0.84690000
H        3.13570000       3.56920000      -1.22560000
