19
Properties=species:S:1:pos:R:3 gdb_41824=T pbc="F F F"
C        0.18070000       1.58990000       0.18780000
O        1.46160000       1.98450000      -0.31840000
C        2.09410000       0.90070000      -0.97340000
C        0.98010000      -0.13410000      -1.20550000
C        0.09290000       0.06330000       0.02880000
O        0.51300000      -0.62010000       1.20430000
C        1.86960000      -1.01850000       1.32890000
C        2.91120000       0.08260000       1.12530000
O        3.18220000       0.40060000      -0.23250000
H        0.09330000       1.88580000       1.23720000
H       -0.60750000       2.09020000      -0.39210000
H        2.54560000       1.26830000      -1.89890000
H        0.40860000       0.14150000      -2.09750000
H        1.36160000      -1.14570000      -1.34210000
H       -0.93960000      -0.25490000      -0.13950000
H        1.95290000      -1.38680000       2.35710000
H        2.10260000      -1.85980000       0.65870000
H        2.61260000       0.98200000       1.67970000
H        3.86670000      -0.26650000       1.52910000
