20
Properties=species:S:1:pos:R:3 gdb_84928=T pbc="F F F"
C       -0.65490000       1.31260000       0.16310000
C        0.00040000      -0.07850000      -0.03400000
C        0.68820000      -0.13110000      -1.38210000
C        1.93810000       0.17820000      -1.72740000
C        3.06930000       0.62840000      -0.83810000
C        3.10890000      -0.00350000       0.54780000
O        1.98580000       0.33010000       1.37230000
C        0.84020000      -0.41190000       1.17910000
N        0.42930000      -1.24600000       2.03700000
H        0.11150000       2.08650000       0.25450000
H       -1.29030000       1.55720000      -0.69300000
H       -1.27080000       1.32090000       1.06700000
H       -0.79720000      -0.82600000      -0.03310000
H        0.00900000      -0.40110000      -2.18890000
H        2.18070000       0.13130000      -2.78700000
H        4.02500000       0.39970000      -1.32660000
H        3.04570000       1.72210000      -0.72730000
H        3.19090000      -1.09560000       0.46880000
H        3.98050000       0.36400000       1.09700000
H        1.09690000      -1.29480000       2.81070000
