16
Properties=species:S:1:pos:R:3 gdb_4569=T pbc="F F F"
C       -0.00060000       1.52320000      -0.00290000
C       -0.00390000       0.01660000       0.01290000
C       -0.09510000      -0.73080000      -1.15750000
N       -0.09930000      -2.06540000      -1.21950000
C       -0.01970000      -2.74450000      -0.07230000
N       -0.08970000      -4.12490000      -0.16670000
C        0.07760000      -2.09960000       1.17430000
C        0.08720000      -0.71830000       1.20270000
H        0.91360000       1.93240000       0.44280000
H       -0.06890000       1.90450000      -1.02570000
H       -0.84470000       1.93690000       0.56130000
H       -0.16500000      -0.21860000      -2.11630000
H        0.09680000      -4.46930000      -1.09730000
H        0.36730000      -4.64980000       0.56260000
H        0.13770000      -2.67990000       2.08920000
H        0.16410000      -0.20020000       2.15500000
