18
Properties=species:S:1:pos:R:3 gdb_22370=T pbc="F F F"
O       -0.11220000       1.28790000      -0.32130000
N       -0.03050000      -0.11110000      -0.27250000
C       -1.13420000      -0.64280000       0.05930000
C       -2.47160000      -0.00790000       0.33730000
C       -3.40900000      -1.21270000       0.61080000
O       -4.72810000      -1.04240000       0.12780000
C       -2.74160000      -2.38500000      -0.12090000
C       -1.24280000      -2.15840000       0.11700000
O       -0.42620000      -2.83560000      -0.80710000
H        0.77620000       1.54000000      -0.59560000
H       -2.42980000       0.72600000       1.14800000
H       -2.81520000       0.52340000      -0.55910000
H       -3.42320000      -1.42180000       1.69220000
H       -5.16020000      -0.36710000       0.65990000
H       -3.09430000      -3.35980000       0.22050000
H       -2.94740000      -2.29730000      -1.19350000
H       -0.99390000      -2.47760000       1.14650000
H        0.34770000      -2.27640000      -0.94910000
