18
Properties=species:S:1:pos:R:3 gdb_97008=T pbc="F F F"
C        0.05200000       1.41840000       0.26550000
N       -0.03410000      -0.03080000       0.38560000
C       -1.06070000      -0.62040000      -0.00950000
O       -2.23410000      -0.12220000      -0.57480000
C       -2.81290000      -1.46190000      -0.68110000
C       -2.83370000      -1.99640000      -2.10650000
C       -1.37150000      -2.43700000      -2.31730000
O       -0.93150000      -2.90190000      -1.03890000
C       -1.52510000      -2.07730000      -0.06780000
H        0.93900000       1.67340000      -0.32460000
H       -0.82670000       1.88450000      -0.19500000
H        0.19840000       1.84890000       1.26220000
H       -3.75560000      -1.51750000      -0.13690000
H       -3.50600000      -2.85900000      -2.15640000
H       -3.16880000      -1.24730000      -2.82710000
H       -1.25160000      -3.25780000      -3.02660000
H       -0.75480000      -1.59060000      -2.65050000
H       -1.55840000      -2.60980000       0.88260000
