20
Properties=species:S:1:pos:R:3 gdb_11914=T pbc="F F F"
C       -0.23010000       1.49670000      -0.03090000
C        0.08310000       0.00510000       0.03930000
C        0.92990000      -0.53000000      -1.12350000
O        1.45500000      -1.76880000      -0.67150000
C        1.64690000      -1.68560000       0.73150000
C        1.67830000      -2.99100000       1.46350000
C        2.95350000      -2.17990000       1.28120000
C        0.94750000      -0.42740000       1.24100000
H        0.69120000       2.09000000      -0.05980000
H       -0.81340000       1.74050000      -0.92540000
H       -0.80890000       1.82250000       0.83920000
H       -0.85400000      -0.56490000       0.05890000
H        0.35830000      -0.71880000      -2.03700000
H        1.74070000       0.17940000      -1.36470000
H        1.23230000      -3.04530000       2.45140000
H        1.57310000      -3.88890000       0.86460000
H        3.67760000      -2.55210000       0.56510000
H        3.37890000      -1.67860000       2.14520000
H        1.68020000       0.35510000       1.47430000
H        0.35940000      -0.60980000       2.14420000
