18
Properties=species:S:1:pos:R:3 gdb_80772=T pbc="F F F"
O       -0.08780000       1.40880000       0.03630000
C       -0.10240000       0.00110000       0.01930000
C       -0.42610000      -0.82470000       1.22620000
C       -1.42140000      -0.08190000       2.12330000
C       -2.43250000      -0.02520000       0.92640000
N       -2.93890000       1.25370000       0.49110000
C       -4.25900000       1.57220000       0.48830000
O       -5.16260000       0.84340000       0.84490000
C       -1.40590000      -0.72130000       0.02430000
H        0.67460000       1.69720000       0.54960000
H        0.64310000      -0.43700000      -0.64390000
H        0.18890000      -1.66330000       1.52890000
H       -1.79610000      -0.68150000       2.95450000
H       -1.08520000       0.88600000       2.50490000
H       -3.30050000      -0.65440000       1.11930000
H       -2.25820000       1.92680000       0.17280000
H       -4.43010000       2.60090000       0.11190000
H       -1.65200000      -1.44970000      -0.73950000
