16
Properties=species:S:1:pos:R:3 gdb_9499=T pbc="F F F"
N        0.41500000       1.13680000      -0.48000000
C        0.08580000      -0.08790000       0.18580000
C       -0.05960000      -0.05940000       1.72810000
C       -1.23170000      -1.06950000       1.61440000
C       -1.39190000      -0.67160000       0.11840000
O       -2.26110000       0.42680000      -0.07860000
C       -1.66200000      -1.74160000      -0.84310000
N       -1.85990000      -2.59360000      -1.60030000
H        0.54120000       0.99150000      -1.47670000
H       -0.34430000       1.80250000      -0.36930000
H        0.78440000      -0.87130000      -0.11920000
H        0.81230000      -0.35570000       2.31260000
H       -0.39960000       0.92120000       2.06900000
H       -0.90880000      -2.10740000       1.72290000
H       -2.11510000      -0.90130000       2.23410000
H       -3.16630000       0.13620000       0.07980000
