19
Properties=species:S:1:pos:R:3 gdb_84694=T pbc="F F F"
C       -0.06780000       1.57320000       0.03670000
C       -0.00230000       0.03850000      -0.02060000
C        0.68070000      -0.44950000      -1.27950000
C        1.81190000      -1.15180000      -1.23510000
C        2.41540000      -1.47590000       0.11200000
C        1.65000000      -2.62140000       0.80200000
O        0.49130000      -1.95060000       1.29930000
C        0.73920000      -0.54770000       1.19740000
O        2.13260000      -0.40950000       1.03000000
H        0.94030000       1.99470000       0.09100000
H       -0.55800000       1.97880000      -0.85380000
H       -0.63090000       1.91170000       0.91300000
H       -1.02400000      -0.36260000       0.00820000
H        0.22240000      -0.18510000      -2.22950000
H        2.30030000      -1.52260000      -2.13080000
H        3.49640000      -1.61910000       0.07850000
H        1.34350000      -3.41780000       0.11810000
H        2.23180000      -3.04860000       1.62940000
H        0.45200000      -0.05860000       2.13410000
