19
Properties=species:S:1:pos:R:3 gdb_82232=T pbc="F F F"
O        0.08990000       1.40950000      -0.00380000
C        0.00480000      -0.00580000      -0.02080000
C        0.79620000      -0.61630000       1.13340000
O        0.43790000      -0.12330000       2.43750000
C        0.05050000      -1.45860000       2.07970000
C       -1.41480000      -1.70770000       1.73890000
C       -2.10590000      -0.36510000       1.38280000
C       -1.45210000      -0.51050000      -0.02010000
C       -1.48280000      -2.05020000       0.21740000
H       -0.04710000       1.67990000       0.91230000
H        0.47490000      -0.32100000      -0.96080000
H        1.86780000      -0.74280000       0.99140000
H        0.57410000      -2.23500000       2.63500000
H       -1.89550000      -2.37570000       2.45600000
H       -3.19020000      -0.48770000       1.32540000
H       -1.86740000       0.50750000       1.99090000
H       -1.98270000      -0.10090000      -0.88190000
H       -0.67640000      -2.65790000      -0.20580000
H       -2.44670000      -2.48290000      -0.06180000
