21
Properties=species:S:1:pos:R:3 gdb_81444=T pbc="F F F"
C       -0.23580000       1.61310000      -0.06870000
C        0.01180000       0.11640000       0.00710000
C        1.18800000      -0.59730000      -0.71420000
C        2.45970000       0.13860000      -0.23160000
C        2.09680000       0.14810000       1.26870000
C        3.07240000      -0.09410000       2.37990000
C        2.39990000       1.25460000       2.23920000
C        0.75250000      -0.57160000       1.18710000
O        1.07090000      -1.67070000       0.27260000
H        0.65910000       2.19820000       0.15540000
H       -0.58430000       1.89630000      -1.06810000
H       -1.01290000       1.91160000       0.64350000
H       -0.90180000      -0.44790000      -0.19750000
H        1.13810000      -0.93490000      -1.74990000
H        3.35640000      -0.44750000      -0.44770000
H        2.57540000       1.13500000      -0.66910000
H        2.76900000      -0.73500000       3.20190000
H        4.12510000      -0.16640000       2.12610000
H        2.99860000       2.09130000       1.89300000
H        1.64350000       1.52630000       2.96930000
H        0.26480000      -0.87900000       2.11350000
