16
Properties=species:S:1:pos:R:3 gdb_75131=T pbc="F F F"
C       -0.06860000       1.53620000       0.03070000
C       -0.00980000       0.04540000      -0.03990000
C       -0.08140000      -0.76430000      -1.10560000
C        0.04450000      -2.23070000      -0.78710000
C        0.10600000      -2.26900000       0.76130000
C        1.20840000      -3.05000000       1.30130000
N        2.09340000      -3.67130000       1.70930000
C        0.16750000      -0.76480000       1.18810000
O        0.30710000      -0.36510000       2.31460000
H        0.84250000       1.93270000       0.49090000
H       -0.18700000       1.98360000      -0.95880000
H       -0.90020000       1.85960000       0.66580000
H       -0.20650000      -0.42370000      -2.12860000
H       -0.79910000      -2.80930000      -1.17830000
H        0.94800000      -2.65610000      -1.23740000
H       -0.82780000      -2.66680000       1.17510000
