14
Properties=species:S:1:pos:R:3 gdb_794=T pbc="F F F"
C       -0.15030000       1.56350000      -0.03540000
C       -0.02690000       0.06500000      -0.03780000
C       -0.04940000      -0.66810000       1.28480000
C        1.26360000      -0.43670000       2.01970000
O        1.38880000       0.26800000       2.98680000
N        0.11620000      -0.66650000      -1.07730000
O        0.13240000       0.09110000      -2.25510000
H        0.44510000       2.00260000      -0.83790000
H       -1.19330000       1.85730000      -0.20500000
H        0.16120000       1.97590000       0.92720000
H       -0.86640000      -0.30470000       1.91560000
H       -0.16580000      -1.73880000       1.09250000
H        2.13470000      -0.95800000       1.56350000
H        0.26250000      -0.58470000      -2.92880000
