23
Properties=species:S:1:pos:R:3 gdb_68989=T pbc="F F F"
C       -0.19360000       1.43900000       0.26290000
C        0.05200000      -0.02840000       0.05640000
C       -0.71530000      -1.09850000       0.79200000
C        0.78520000      -1.06350000       0.93580000
C        1.40370000      -1.69810000      -0.32210000
C        0.66350000      -0.64550000      -1.20820000
C        1.52010000      -0.93170000       2.22200000
C        0.84430000      -0.65110000       3.54270000
C        1.43080000      -2.01290000       3.28030000
H        0.68660000       2.03380000      -0.00820000
H       -1.03100000       1.79260000      -0.35210000
H       -0.43610000       1.65970000       1.30750000
H       -1.28190000      -0.74380000       1.64710000
H       -1.19770000      -1.91190000       0.25140000
H        2.49010000      -1.58230000      -0.36230000
H        1.16280000      -2.75270000      -0.49570000
H       -0.04720000      -1.03120000      -1.94770000
H        1.35830000       0.02840000      -1.71730000
H        2.50690000      -0.48560000       2.11230000
H        1.35500000       0.00470000       4.23920000
H       -0.23580000      -0.56380000       3.56830000
H        0.73880000      -2.82800000       3.09780000
H        2.33540000      -2.30030000       3.80460000
