18
Properties=species:S:1:pos:R:3 gdb_76124=T pbc="F F F"
C       -0.19580000       1.55770000       0.10270000
C        0.03530000       0.05590000       0.04140000
C        1.13740000      -0.54630000      -0.93270000
C        1.98770000       0.39950000      -1.64330000
N        2.65830000       1.16850000      -2.18830000
C        1.76630000      -1.28070000       0.26530000
C        2.18540000      -0.28370000       1.32160000
C        0.73770000      -0.66480000       1.20240000
O        0.04540000      -1.30290000       2.21380000
H        0.73040000       2.10710000       0.29290000
H       -0.61320000       1.93190000      -0.83740000
H       -0.90550000       1.79790000       0.90170000
H       -0.90480000      -0.46270000      -0.16780000
H        0.69090000      -1.23120000      -1.65680000
H        2.16360000      -2.28630000       0.22730000
H        2.68640000      -0.73660000       2.17120000
H        2.56110000       0.69830000       1.04610000
H        0.03480000      -0.73080000       2.98840000
