14
Properties=species:S:1:pos:R:3 gdb_2064=T pbc="F F F"
O       -0.00780000      -0.03590000      -0.23000000
C       -0.01090000       1.16740000      -0.03440000
N       -1.16900000       1.87430000       0.19950000
C       -1.22850000       3.32470000       0.06760000
C       -0.03300000       3.96690000       0.77570000
C        1.24150000       3.25050000       0.41820000
C        1.23660000       1.97390000       0.02740000
H       -2.00960000       1.34330000       0.02310000
H       -1.22450000       3.62760000      -0.99160000
H       -2.16740000       3.67730000       0.50390000
H        0.02740000       5.02590000       0.50370000
H       -0.17200000       3.93340000       1.86600000
H        2.17830000       3.79280000       0.51890000
H        2.14210000       1.42900000      -0.21280000
