14
Properties=species:S:1:pos:R:3 gdb_49965=T pbc="F F F"
O        0.42120000       0.03770000       0.80840000
C        0.18970000       1.12300000       0.34700000
N        1.05310000       1.80270000      -0.51860000
C        2.46600000       1.87900000      -0.32090000
C        1.60310000       3.13910000      -0.23070000
C        1.61610000       4.03950000      -1.44330000
O        1.61170000       5.23750000      -1.40450000
C        1.38980000       3.74520000       1.05400000
C        1.18940000       4.25990000       2.12050000
H       -0.75610000       1.67240000       0.49420000
H        2.86780000       1.50760000       0.61730000
H        3.08760000       1.73130000      -1.20020000
H        1.63560000       3.46310000      -2.39380000
H        1.01990000       4.71830000       3.06400000
