18
Properties=species:S:1:pos:R:3 gdb_121080=T pbc="F F F"
O        0.04850000       1.32560000      -0.23000000
C        0.02720000      -0.07880000      -0.03700000
C       -1.39780000      -0.64130000      -0.03250000
C       -1.44970000      -2.14170000       0.24090000
C       -2.85420000      -2.75810000       0.13330000
O       -2.87870000      -3.28560000      -1.19520000
C       -1.59730000      -3.41830000      -1.64730000
N       -1.22420000      -3.96100000      -2.71740000
O       -0.72600000      -2.86630000      -0.76970000
H       -0.18310000       1.50230000      -1.14720000
H        0.63330000      -0.60440000      -0.78660000
H        0.49550000      -0.25270000       0.93880000
H       -1.98220000      -0.12160000       0.73640000
H       -1.88200000      -0.43850000      -0.99760000
H       -0.97560000      -2.37400000       1.19920000
H       -3.01010000      -3.57090000       0.85140000
H       -3.65690000      -2.02470000       0.23460000
H       -2.02550000      -4.34750000      -3.21030000
