19
Properties=species:S:1:pos:R:3 gdb_43371=T pbc="F F F"
O        0.30610000       0.05690000      -0.01040000
C        0.09700000       1.24780000       0.00920000
C       -1.21670000       1.92750000      -0.05280000
C       -1.05600000       3.25440000       0.00760000
C        0.38680000       3.67530000       0.12520000
C        1.18250000       2.34890000       0.10220000
C        2.10320000       2.14090000       1.28610000
C        3.22250000       1.13920000       1.21040000
C        3.53680000       2.61480000       1.24160000
H       -2.14910000       1.38330000      -0.13130000
H       -1.86140000       3.98170000      -0.01800000
H        0.66740000       4.35390000      -0.68920000
H        0.55470000       4.23620000       1.05340000
H        1.77860000       2.27780000      -0.81580000
H        1.60410000       2.22490000       2.24910000
H        3.43890000       0.54580000       2.09130000
H        3.35480000       0.60510000       0.27660000
H        3.88950000       3.07990000       0.32650000
H        3.96890000       3.03310000       2.14400000
