21
Properties=species:S:1:pos:R:3 gdb_61920=T pbc="F F F"
C       -0.49030000       1.46940000       0.03260000
C       -0.18460000      -0.03730000       0.04690000
N        0.57740000      -0.50980000      -1.12050000
C       -0.07510000      -0.33160000      -2.40880000
C        0.69880000      -0.97560000      -3.47630000
N        1.31680000      -1.45930000      -4.32370000
C        0.56150000      -0.52800000       1.27950000
C        1.65950000       0.26420000       1.95270000
C        0.35190000       0.02100000       2.66530000
H        0.42860000       2.06490000       0.01230000
H       -1.07890000       1.73890000      -0.84910000
H       -1.07350000       1.76890000       0.90780000
H       -1.14520000      -0.57270000       0.01270000
H        1.49900000      -0.08380000      -1.12880000
H       -1.06270000      -0.80890000      -2.36790000
H       -0.24940000       0.71490000      -2.71450000
H        0.74090000      -1.59760000       1.22560000
H        2.54190000      -0.27040000       2.28600000
H        1.86000000       1.27500000       1.61470000
H       -0.31020000       0.86900000       2.79940000
H        0.33280000      -0.68380000       3.48920000
