15
Properties=species:S:1:pos:R:3 gdb_127614=T pbc="F F F"
C       -0.01600000       1.43590000      -0.05420000
N       -0.00810000      -0.00660000       0.01760000
N       -0.03770000      -0.74830000      -1.11740000
C       -0.01860000      -2.03180000      -0.76040000
C        0.02450000      -2.12540000       0.64880000
C        0.03060000      -0.81180000       1.11810000
C        0.07350000      -0.90010000       2.53030000
N        0.09240000      -2.17870000       2.89730000
N        0.06280000      -2.91580000       1.75910000
H        0.89110000       1.85620000       0.39350000
H       -0.05770000       1.70930000      -1.10810000
H       -0.88930000       1.84890000       0.46220000
H       -0.03680000      -2.79930000      -1.51790000
H        0.09150000      -0.12740000       3.28260000
H        0.07080000      -3.91680000       1.83470000
