19
Properties=species:S:1:pos:R:3 gdb_32896=T pbc="F F F"
C       -0.03380000       1.44840000       0.02690000
N       -0.00480000       0.00070000       0.02090000
C        0.01830000      -0.81250000      -1.07240000
N        0.05320000      -2.08420000      -0.74850000
C        0.05440000      -2.11260000       0.63180000
C        0.06030000      -3.40610000       1.38220000
C       -1.26090000      -4.17710000       1.22690000
O       -1.25800000      -5.41360000       1.92310000
C        0.01720000      -0.83040000       1.12140000
H        0.85430000       1.85710000       0.51920000
H       -0.05530000       1.80670000      -1.00410000
H       -0.92440000       1.82010000       0.54310000
H        0.01120000      -0.41090000      -2.07580000
H        0.87770000      -4.03750000       1.00830000
H        0.24730000      -3.23100000       2.44670000
H       -2.08090000      -3.59290000       1.65780000
H       -1.47880000      -4.30960000       0.15780000
H       -0.60540000      -5.98240000       1.50240000
H        0.00890000      -0.43820000       2.12560000
