19
Properties=species:S:1:pos:R:3 gdb_84221=T pbc="F F F"
C       -0.00310000       1.57640000      -0.21780000
C       -0.01820000       0.05950000       0.00310000
C        0.76470000      -0.66180000      -1.10090000
C        1.55420000      -1.61410000      -0.56760000
C        2.99940000      -1.23010000      -0.24390000
C        2.34170000      -0.90040000       1.15730000
O        3.08230000      -0.84400000       2.32580000
C        0.80220000      -0.44550000       1.20900000
C        1.21810000      -1.84650000       0.91990000
H        1.01700000       1.94130000      -0.38030000
H       -0.60700000       1.85990000      -1.08600000
H       -0.40940000       2.09450000       0.65750000
H       -1.06450000      -0.26010000       0.12750000
H        1.03110000      -0.12300000      -2.00730000
H        3.71290000      -2.04740000      -0.08680000
H        3.45200000      -0.43520000      -0.84480000
H        3.44810000       0.04360000       2.40740000
H        0.51540000      -0.16880000       2.22270000
H        0.95480000      -2.77260000       1.41410000
