21
Properties=species:S:1:pos:R:3 gdb_85810=T pbc="F F F"
C       -0.72940000       1.11900000      -0.10150000
C        0.06420000      -0.17440000      -0.17860000
C        1.39770000      -0.21630000      -0.96860000
O        1.99340000       1.07120000      -0.98730000
C        1.97720000      -1.16290000       0.11590000
C        0.82590000      -0.73100000       1.09310000
C        1.28130000       0.35350000       2.08250000
C        0.14750000      -1.81260000       1.78780000
C       -0.42200000      -2.70870000       2.35450000
H       -0.10330000       1.96190000       0.19630000
H       -1.16470000       1.35930000      -1.07740000
H       -1.55210000       1.02390000       0.61520000
H       -0.57520000      -0.97890000      -0.55390000
H        1.33800000      -0.62590000      -1.98560000
H        2.89300000       0.97630000      -1.31630000
H        1.90450000      -2.21560000      -0.16530000
H        2.99530000      -0.94660000       0.45220000
H        1.81130000       1.14910000       1.55460000
H        0.42750000       0.78720000       2.61090000
H        1.95350000      -0.08090000       2.82900000
H       -0.92210000      -3.49980000       2.85570000
