21
Properties=species:S:1:pos:R:3 gdb_105035=T pbc="F F F"
C        0.87420000      -0.33210000      -0.99580000
O       -0.11200000       0.06840000      -0.07270000
C       -1.37170000      -0.55490000      -0.11560000
C       -1.87370000      -1.30980000      -1.31920000
C       -1.51810000      -2.05210000      -0.03970000
C       -2.36340000       0.30370000       0.66300000
C       -1.88390000       0.57750000       2.10030000
C       -2.59300000       1.61860000      -0.06450000
O       -3.67520000       2.03690000      -0.38990000
H        1.78010000       0.21940000      -0.73350000
H        1.09720000      -1.40690000      -0.93810000
H        0.59950000      -0.08350000      -2.02980000
H       -2.91830000      -1.19570000      -1.58830000
H       -1.21570000      -1.45240000      -2.16770000
H       -0.61730000      -2.65600000      -0.05710000
H       -2.31410000      -2.46170000       0.57270000
H       -3.32750000      -0.21350000       0.68700000
H       -2.63470000       1.14630000       2.65610000
H       -1.70820000      -0.36660000       2.62460000
H       -0.94710000       1.13960000       2.09870000
H       -1.66390000       2.19180000      -0.27610000
