19
Properties=species:S:1:pos:R:3 gdb_51090=T pbc="F F F"
O       -0.17380000      -0.05490000      -0.15540000
C        0.00010000       1.13030000      -0.03830000
C        1.33970000       1.82600000      -0.17040000
C        1.32960000       2.91240000      -1.23250000
C        0.42380000       4.19370000      -1.17340000
C        1.43700000       4.65580000      -2.24760000
C        2.52330000       3.90330000      -1.44310000
O        1.17360000       3.77940000      -3.35440000
C        1.08490000       2.49870000      -2.69550000
H       -0.85190000       1.81380000       0.18520000
H        1.57090000       2.28170000       0.80300000
H        2.10270000       1.06940000      -0.38150000
H       -0.62200000       4.11130000      -1.47930000
H        0.51580000       4.72960000      -0.22650000
H        1.53250000       5.68020000      -2.60210000
H        2.81420000       4.40920000      -0.52040000
H        3.39940000       3.54900000      -1.99180000
H        1.85070000       1.81550000      -3.08220000
H        0.09670000       2.05330000      -2.86360000
