21
Properties=species:S:1:pos:R:3 gdb_13722=T pbc="F F F"
C       -0.35000000       1.33440000      -0.25960000
C        0.14870000      -0.07530000       0.00890000
O        0.60520000      -0.63190000      -1.20690000
C        1.10110000      -1.94770000      -1.06600000
C        1.62690000      -2.40640000      -2.40160000
C        1.57050000      -3.84930000      -2.77860000
N        0.75970000      -2.86760000      -3.48360000
C       -0.68300000      -2.89880000      -3.29080000
H        0.45430000       1.95460000      -0.66500000
H       -1.16880000       1.31980000      -0.98450000
H       -0.71210000       1.79400000       0.66500000
H        0.96550000      -0.06260000       0.75110000
H       -0.65820000      -0.69720000       0.43370000
H        1.92110000      -1.97260000      -0.32710000
H        0.31410000      -2.61920000      -0.68840000
H        2.46510000      -1.80840000      -2.75600000
H        2.37770000      -4.30850000      -3.34360000
H        1.06700000      -4.52200000      -2.08300000
H       -1.00870000      -3.32190000      -2.32750000
H       -1.07470000      -1.88070000      -3.36690000
H       -1.12760000      -3.50500000      -4.08650000
