20
Properties=species:S:1:pos:R:3 gdb_68446=T pbc="F F F"
C        0.06190000       1.59980000      -0.03140000
C        0.08690000       0.08790000      -0.12590000
C        1.28160000      -0.60670000      -0.83640000
C        1.21160000      -1.72230000       0.24270000
C        0.40940000      -0.74500000       1.14560000
C        0.37910000      -2.91980000      -0.20720000
N       -0.93610000      -2.68340000      -0.76940000
C       -1.51190000      -1.57540000      -0.94550000
O       -1.17470000      -0.28050000      -0.70670000
H        0.99450000       1.96810000       0.40460000
H       -0.05840000       2.04510000      -1.02370000
H       -0.77090000       1.93210000       0.59580000
H        1.13130000      -0.89270000      -1.88060000
H        2.18920000      -0.00290000      -0.75720000
H        2.16790000      -2.07540000       0.63890000
H        1.05100000      -0.18340000       1.82950000
H       -0.44440000      -1.14260000       1.70030000
H        0.94650000      -3.49220000      -0.95500000
H        0.24340000      -3.60370000       0.64290000
H       -2.51040000      -1.57020000      -1.38440000
