14
Properties=species:S:1:pos:R:3 gdb_16516=T pbc="F F F"
O        0.05770000       1.33440000       0.06480000
C       -0.00520000      -0.03780000      -0.06850000
C        0.85870000      -0.77550000      -1.12170000
N        0.48790000      -2.18080000      -0.84720000
C       -0.61690000      -2.10120000      -0.21820000
N       -0.58720000      -2.39920000       1.22470000
C       -0.63400000      -0.83970000       1.20740000
C       -1.32320000      -0.70630000      -0.09630000
H        0.92750000       1.56750000       0.40910000
H        0.63760000      -0.39100000      -2.12840000
H        1.94030000      -0.69820000      -0.96060000
H       -1.53020000      -2.63480000       1.55540000
H       -0.79350000      -0.31150000       2.14250000
H       -2.30520000      -0.36910000      -0.40310000
