21
Properties=species:S:1:pos:R:3 gdb_115848=T pbc="F F F"
C       -0.13390000       1.52920000       0.06400000
C       -0.00030000       0.00580000      -0.00810000
C        0.73410000      -0.59070000       1.18920000
O        0.00730000      -0.28310000       2.39550000
C        0.41500000      -1.21340000       3.40470000
C        0.68860000      -2.51380000       2.66990000
C       -0.34360000      -2.89230000       1.63930000
O       -1.64590000      -2.38760000       1.63890000
C        0.87160000      -2.10540000       1.20980000
H        0.84950000       2.01020000       0.11420000
H       -0.65160000       1.91980000      -0.81710000
H       -0.69620000       1.82930000       0.95210000
H       -0.98480000      -0.46710000      -0.08980000
H        0.55620000      -0.27960000      -0.90950000
H        1.73960000      -0.13940000       1.25620000
H        1.32070000      -0.86040000       3.92060000
H       -0.39940000      -1.27160000       4.13420000
H        1.30120000      -3.26640000       3.15340000
H       -0.35860000      -3.93520000       1.33940000
H       -1.59010000      -1.46230000       1.91570000
H        1.61950000      -2.56100000       0.57010000
