15
Properties=species:S:1:pos:R:3 gdb_7335=T pbc="F F F"
C       -0.38450000       1.34230000       0.06280000
N        0.52220000       0.17200000       0.11410000
H        0.08270000      -0.73690000      -0.33060000
H        1.39610000       0.36820000      -0.36990000
C        0.79990000      -0.43170000       1.45670000
C        0.51070000      -1.94190000       1.23750000
O       -0.05380000      -2.19540000       0.16750000
C        1.20300000      -2.91260000       2.20460000
O        0.64530000      -3.61960000       3.02080000
O        2.39200000      -2.70120000       1.84220000
H        0.04830000       2.17860000       0.61400000
H       -0.54640000       1.62660000      -0.97860000
H       -1.33680000       1.05830000       0.51270000
H        1.82730000      -0.27000000       1.77010000
H        0.10510000      -0.00760000       2.18600000
