19
Properties=species:S:1:pos:R:3 gdb_100247=T pbc="F F F"
C       -0.12170000       1.28440000       0.43900000
O       -0.04160000      -0.09330000       0.12440000
C        0.56890000      -0.42360000      -1.11570000
C        1.99650000       0.10550000      -1.26570000
C        0.57850000      -1.97630000      -1.14900000
C       -0.74250000      -2.59340000      -1.11510000
C       -1.82260000      -3.11940000      -1.10320000
C       -0.33260000       0.07140000      -2.25940000
O        0.06720000       0.44130000      -3.33200000
H        0.85530000       1.70810000       0.70620000
H       -0.54410000       1.88110000      -0.38280000
H       -0.78570000       1.36600000       1.30250000
H        2.63030000      -0.28080000      -0.46250000
H        2.40660000      -0.20190000      -2.22970000
H        2.02280000       1.19710000      -1.23990000
H        1.11550000      -2.29890000      -2.04810000
H        1.16380000      -2.30750000      -0.28300000
H       -2.77840000      -3.58150000      -1.08730000
H       -1.41390000       0.04010000      -2.00640000
