17
Properties=species:S:1:pos:R:3 gdb_65420=T pbc="F F F"
N       -0.05420000       1.42530000       0.21210000
C       -0.01520000       0.00020000      -0.00480000
C       -0.65520000      -0.86660000       1.06940000
C       -1.33870000      -0.72470000      -0.25490000
C       -2.62670000       0.07450000      -0.39050000
C       -3.79580000      -0.70030000       0.01280000
C       -4.74590000      -1.35620000       0.34580000
C        1.15330000      -0.52600000      -0.68140000
N        2.09900000      -0.90250000      -1.23290000
H        0.68450000       1.70730000       0.84950000
H        0.09470000       1.92620000      -0.65900000
H       -0.17830000      -1.80660000       1.31820000
H       -1.06670000      -0.31600000       1.90810000
H       -1.26860000      -1.58090000      -0.91760000
H       -2.54700000       0.98560000       0.21090000
H       -2.74690000       0.40090000      -1.43170000
H       -5.59220000      -1.92620000       0.63980000
