22
Properties=species:S:1:pos:R:3 gdb_14796=T pbc="F F F"
C       -0.08420000       1.51530000       0.01140000
C       -0.02610000      -0.00300000       0.00250000
O       -1.34530000      -0.50580000       0.01230000
C       -1.40690000      -1.91500000       0.00520000
C       -2.86870000      -2.34110000       0.01680000
C       -3.03600000      -3.86250000       0.01020000
C       -4.49620000      -4.29390000       0.02160000
O       -4.53330000      -5.71330000       0.01410000
H        0.92570000       1.93630000       0.00410000
H       -0.62090000       1.88370000      -0.86750000
H       -0.60400000       1.87390000       0.90440000
H        0.51300000      -0.36410000      -0.89060000
H        0.52990000      -0.37390000       0.88100000
H       -0.89750000      -2.31790000      -0.88810000
H       -0.88060000      -2.32760000       0.88410000
H       -3.34930000      -1.90840000       0.90290000
H       -3.36610000      -1.89880000      -0.85510000
H       -2.55530000      -4.29570000      -0.87570000
H       -2.53870000      -4.30520000       0.88210000
H       -4.99670000      -3.88630000       0.91550000
H       -5.01350000      -3.87650000      -0.85800000
H       -5.45420000      -5.98960000       0.02220000
