18
Properties=species:S:1:pos:R:3 gdb_37286=T pbc="F F F"
C       -0.03660000       1.50000000      -0.01850000
C        1.50760000       1.73590000      -0.01050000
N        2.07620000       0.36600000       0.03970000
C        1.19770000      -0.39180000      -0.94450000
C        1.48540000      -1.86380000      -0.62450000
O        2.68240000      -2.09520000       0.12560000
C        1.47050000      -1.81650000       0.83470000
C        1.17730000      -0.32710000       1.05280000
C        0.01840000      -0.02380000       0.03140000
H       -0.54500000       1.93390000       0.84760000
H       -0.52700000       1.87660000      -0.92110000
H        1.86980000       2.24250000      -0.90900000
H        1.85170000       2.29980000       0.86060000
H        1.21800000      -0.05610000      -1.98290000
H        1.12240000      -2.67600000      -1.24440000
H        1.09450000      -2.58710000       1.49840000
H        1.17670000       0.07510000       2.06750000
H       -0.92270000      -0.58120000       0.03990000
