19
Properties=species:S:1:pos:R:3 gdb_119867=T pbc="F F F"
O        0.10480000       1.43600000      -0.04240000
C        0.06490000       0.01990000      -0.05080000
C       -1.36430000      -0.52370000       0.13920000
C       -1.41170000      -2.01920000       0.11600000
C       -1.57540000      -2.88510000       1.12690000
C       -1.55270000      -4.33270000       0.70350000
C       -1.33780000      -4.27270000      -0.82120000
C       -1.25590000      -2.77760000      -1.15490000
O       -1.09740000      -2.29610000      -2.25520000
H       -0.31970000       1.74530000      -0.84900000
H        0.49230000      -0.39430000      -0.97380000
H        0.69560000      -0.30360000       0.78410000
H       -1.77200000      -0.13020000       1.07540000
H       -1.98310000      -0.14130000      -0.68320000
H       -1.72010000      -2.60010000       2.16480000
H       -0.75580000      -4.88060000       1.22110000
H       -2.48850000      -4.83530000       0.97700000
H       -0.41700000      -4.76660000      -1.14520000
H       -2.15420000      -4.72790000      -1.38920000
