17
Properties=species:S:1:pos:R:3 gdb_103033=T pbc="F F F"
C        0.02870000       1.39690000      -0.10810000
O       -0.02280000       0.00900000       0.20460000
C       -1.27760000      -0.57900000       0.06710000
C       -2.24030000      -0.00600000       1.02720000
N       -2.96280000       0.48460000       1.78540000
C       -1.86880000      -0.93070000      -1.35550000
C       -0.71890000      -1.95860000      -1.51160000
C       -1.30260000      -2.13210000      -0.08570000
N       -2.67240000      -2.04840000      -0.72780000
H        1.06370000       1.70830000       0.04020000
H       -0.25880000       1.58290000      -1.15150000
H       -0.62330000       1.98140000       0.55300000
H       -2.29830000      -0.25170000      -2.09200000
H       -0.94040000      -2.77980000      -2.19150000
H        0.29520000      -1.57510000      -1.59180000
H       -1.05710000      -2.86790000       0.67950000
H       -3.35820000      -1.67220000      -0.06490000
