12
Properties=species:S:1:pos:R:3 gdb_21605=T pbc="F F F"
N        0.01560000       1.38400000       0.13670000
C       -0.04620000       0.01470000       0.04450000
C       -1.17330000      -0.74180000       0.01580000
O       -1.18610000      -2.09430000      -0.02160000
N       -0.02410000      -2.81520000      -0.03130000
C        1.08160000      -2.14260000      -0.01220000
C        1.23070000      -0.69080000       0.01610000
O        2.31090000      -0.10920000       0.00500000
H        0.93900000       1.73600000      -0.08220000
H       -0.74840000       1.92460000      -0.23580000
H       -2.18550000      -0.35490000       0.02190000
H        1.98030000      -2.75220000      -0.02820000
