22
Properties=species:S:1:pos:R:3 gdb_121209=T pbc="F F F"
C        0.10730000       1.69190000      -0.08170000
C        0.22280000       0.16870000       0.02700000
C        0.62910000      -0.49250000      -1.29400000
C        0.72180000      -2.01460000      -1.23660000
C        1.30680000      -2.71650000      -2.50100000
C        2.46280000      -3.25850000      -1.61570000
N        1.86360000      -2.56420000      -0.47060000
C        1.99610000      -2.90100000       0.83490000
O        2.85410000      -3.64440000       1.26650000
H        1.05980000       2.13910000      -0.38650000
H       -0.64580000       1.98100000      -0.82320000
H       -0.17850000       2.13860000       0.87540000
H        0.95870000      -0.08540000       0.79970000
H       -0.73470000      -0.25050000       0.36380000
H       -0.10190000      -0.23510000      -2.07330000
H        1.59560000      -0.09190000      -1.62710000
H       -0.23740000      -2.43430000      -0.90570000
H        0.66560000      -3.48420000      -2.93480000
H        1.61540000      -2.02350000      -3.28540000
H        2.49620000      -4.34380000      -1.48140000
H        3.46730000      -2.90720000      -1.86960000
H        1.23430000      -2.41150000       1.47540000
