17
Properties=species:S:1:pos:R:3 gdb_1541=T pbc="F F F"
C       -0.01660000       1.57230000       0.04170000
C        0.01940000       0.04220000       0.01470000
C        0.69020000      -0.50510000      -1.24900000
C        0.69250000      -2.04550000      -1.30950000
N       -0.67500000      -2.56900000      -1.37120000
C        1.53680000      -2.51350000      -2.43190000
N        2.15940000      -2.89580000      -3.32850000
H        0.99240000       1.99740000      -0.00120000
H       -0.57880000       1.97090000      -0.81000000
H       -0.49380000       1.93950000       0.95520000
H        0.55960000      -0.32890000       0.89590000
H       -0.99480000      -0.36250000       0.08420000
H        0.18210000      -0.12270000      -2.14440000
H        1.72620000      -0.15320000      -1.31100000
H        1.14650000      -2.42680000      -0.38620000
H       -1.09990000      -2.30820000      -2.25730000
H       -0.66380000      -3.58410000      -1.34580000
