19
Properties=species:S:1:pos:R:3 gdb_37058=T pbc="F F F"
C        0.02030000       1.44340000      -0.01850000
C        1.35910000       0.71800000      -0.01490000
C        1.99940000       0.47110000       1.33990000
C        0.83530000      -0.13660000       2.17470000
O       -0.09430000      -0.72130000       1.25410000
C        0.07530000      -0.06870000       0.02700000
C       -0.01460000      -0.81120000      -1.25690000
C        1.03320000      -0.51680000      -2.03480000
C        2.02050000       0.42840000      -1.36170000
H       -0.26860000       1.97700000       0.88150000
H       -0.30550000       1.90910000      -0.94270000
H        2.81330000      -0.25320000       1.22610000
H        2.41120000       1.36040000       1.82760000
H        1.16070000      -0.91790000       2.86730000
H        0.33480000       0.64510000       2.76260000
H       -0.84080000      -1.46130000      -1.51850000
H        1.17110000      -0.86920000      -3.05200000
H        2.18480000       1.33520000      -1.95770000
H        3.00630000      -0.04130000      -1.24240000
