22
Properties=species:S:1:pos:R:3 gdb_119276=T pbc="F F F"
O       -0.73570000       0.46270000      -1.66180000
C       -0.34800000       0.24900000      -0.30550000
C       -1.48020000      -0.50920000       0.38710000
C       -1.57780000      -1.98270000       0.00100000
C       -0.59640000      -2.87830000       0.74600000
C       -0.45200000      -4.29710000       0.21010000
O        0.52250000      -4.94750000       1.01960000
C       -2.90880000      -2.48320000      -0.44160000
N       -1.82060000      -2.30960000      -1.41730000
H        0.03850000       0.73320000      -2.16330000
H        0.59090000      -0.32070000      -0.24980000
H       -0.18100000       1.21100000       0.20280000
H       -1.34810000      -0.42700000       1.47280000
H       -2.41300000       0.01140000       0.14150000
H        0.40200000      -2.42180000       0.72740000
H       -0.88710000      -2.92760000       1.80350000
H       -1.41480000      -4.82890000       0.25830000
H       -0.15000000      -4.26220000      -0.84390000
H        0.66470000      -5.82740000       0.65950000
H       -3.20570000      -3.51320000      -0.26470000
H       -3.73660000      -1.77750000      -0.44500000
H       -1.92990000      -1.44750000      -1.94420000
