12
Properties=species:S:1:pos:R:3 gdb_21867=T pbc="F F F"
O       -0.09760000       1.29660000       0.00990000
C        0.05220000      -0.03440000       0.00240000
N        1.21420000      -0.58610000      -0.00700000
C        1.24920000      -1.98890000      -0.01400000
N        2.31310000      -2.69870000      -0.02370000
C       -0.05850000      -2.66600000      -0.01020000
N       -1.19470000      -2.06450000      -0.00060000
N       -1.12950000      -0.69980000       0.00610000
H        0.79760000       1.66520000       0.00660000
H        3.12870000      -2.08210000      -0.02530000
H       -0.07680000      -3.75020000      -0.01580000
H       -2.01030000      -0.21280000       0.01320000
