19
Properties=species:S:1:pos:R:3 gdb_87736=T pbc="F F F"
O       -0.46510000       1.43560000      -0.30050000
C       -0.22330000       0.06270000      -0.20920000
C       -0.25120000      -0.61890000       1.13100000
C       -1.40750000      -0.80310000       0.16060000
C       -2.79230000      -0.20530000       0.43340000
C       -3.79150000      -1.07820000      -0.38090000
O       -4.37250000      -0.41050000      -1.50130000
C       -2.95750000      -2.26710000      -0.80520000
C       -1.66210000      -2.08840000      -0.53980000
H        0.28740000       1.89900000       0.08190000
H        0.46320000      -0.32890000      -0.96090000
H        0.42300000      -1.45100000       1.30860000
H       -0.44490000       0.00740000       1.99650000
H       -3.02580000      -0.26050000       1.50120000
H       -2.86250000       0.84210000       0.13340000
H       -4.65510000      -1.36550000       0.22750000
H       -3.65900000      -0.22630000      -2.12290000
H       -3.38910000      -3.11320000      -1.32720000
H       -0.86250000      -2.77620000      -0.79680000
