17
Properties=species:S:1:pos:R:3 gdb_76929=T pbc="F F F"
C       -0.11850000       1.34650000       0.56600000
N       -0.06990000      -0.06550000       0.26830000
C       -1.13920000      -0.98300000      -0.11600000
C       -1.96440000      -0.58550000      -1.31990000
O       -1.79740000       0.42550000      -1.95220000
C        0.00210000      -2.01960000      -0.47970000
O        0.00010000      -2.53520000      -1.78050000
C        0.95000000      -0.84920000      -0.22950000
N        2.17880000      -0.74040000      -0.51550000
H        0.87690000       1.67150000       0.88180000
H       -0.43420000       1.93570000      -0.30100000
H       -0.81080000       1.53280000       1.39380000
H       -1.80660000      -1.28980000       0.70140000
H       -2.75970000      -1.31660000      -1.58320000
H        0.07320000      -2.82470000       0.25960000
H        0.81130000      -2.22500000      -2.20270000
H        2.54370000       0.19740000      -0.34630000
