22
Properties=species:S:1:pos:R:3 gdb_14798=T pbc="F F F"
C        0.61360000       0.98710000      -1.15090000
C       -0.11040000       0.09510000      -0.15690000
O        0.74940000      -0.15350000       0.93600000
C        0.17290000      -0.97600000       1.92300000
C        1.19850000      -1.15960000       3.03090000
O        0.62220000      -1.98250000       4.01760000
C        1.48180000      -2.23070000       5.11070000
C        0.75790000      -3.12290000       6.10470000
H        1.52610000       0.50140000      -1.50840000
H       -0.02790000       1.19860000      -2.01160000
H        0.89190000       1.93580000      -0.68320000
H       -1.03880000       0.57810000       0.19280000
H       -0.40470000      -0.85610000      -0.63240000
H       -0.74220000      -0.52200000       2.33720000
H       -0.10700000      -1.95920000       1.51070000
H        2.11390000      -1.61310000       2.61660000
H        1.47790000      -0.17630000       3.44340000
H        2.41050000      -2.71350000       4.76130000
H        1.77570000      -1.27930000       5.58620000
H       -0.15490000      -2.63750000       6.46180000
H        0.48010000      -4.07170000       5.63700000
H        1.39930000      -3.33400000       6.96550000
