19
Properties=species:S:1:pos:R:3 gdb_5220=T pbc="F F F"
C       -0.13130000       1.57580000      -0.04500000
C       -0.11880000       0.04580000      -0.07370000
C        0.82550000      -0.52450000      -1.15140000
C        0.87230000      -2.01890000      -1.19750000
C        1.84960000      -2.90970000      -0.80790000
C        1.36610000      -4.22750000      -1.04530000
C        0.10410000      -4.10920000      -1.57520000
N       -0.18550000      -2.76890000      -1.66150000
H        0.86810000       1.97490000       0.16160000
H       -0.45770000       1.98930000      -1.00610000
H       -0.80730000       1.95520000       0.72740000
H        0.18490000      -0.34760000       0.90340000
H       -1.13630000      -0.32850000      -0.24620000
H        0.53140000      -0.12020000      -2.13140000
H        1.84160000      -0.15810000      -0.96790000
H        2.81080000      -2.63750000      -0.39760000
H        1.88720000      -5.15300000      -0.85370000
H       -0.60600000      -4.85310000      -1.89890000
H       -1.04220000      -2.38720000      -2.02280000
