15
Properties=species:S:1:pos:R:3 gdb_125648=T pbc="F F F"
C       -0.01770000       1.49090000      -0.04510000
C        0.00280000       0.00050000       0.04820000
N       -0.00540000      -0.74870000      -1.05220000
N        0.01780000      -2.06540000      -0.64520000
C        0.04040000      -2.12570000       0.70140000
C        0.03200000      -0.83520000       1.19990000
N        0.05490000      -0.85420000       2.58530000
C        0.07610000      -2.12440000       2.88850000
N        0.06880000      -2.97180000       1.77550000
H        0.86500000       1.92830000       0.43370000
H       -0.03830000       1.79950000      -1.09220000
H       -0.89570000       1.90580000       0.46170000
H        0.01640000      -2.78740000      -1.34170000
H        0.09760000      -2.53680000       3.88690000
H        0.08190000      -3.97640000       1.79090000
