19
Properties=species:S:1:pos:R:3 gdb_83668=T pbc="F F F"
C        0.21310000       1.58740000      -0.28470000
C        0.11850000       0.09560000      -0.01820000
C        0.56120000      -0.86880000      -1.14730000
O        1.64640000      -0.36140000      -1.94850000
C        2.62560000      -1.09870000      -1.17340000
C        1.55190000      -1.59410000      -0.19720000
C        1.17510000      -0.59170000       0.94950000
C        2.23460000       0.21920000       1.51190000
C        3.11650000       0.89990000       1.96710000
H        1.18640000       1.84590000      -0.70660000
H       -0.55760000       1.89790000      -0.99840000
H        0.07300000       2.15930000       0.63770000
H       -0.88870000      -0.16740000       0.32180000
H       -0.21130000      -1.34880000      -1.75480000
H        3.08590000      -1.89270000      -1.77490000
H        3.40660000      -0.45250000      -0.75880000
H        1.52650000      -2.65340000       0.05180000
H        0.66060000      -1.11570000       1.76050000
H        3.89130000       1.49830000       2.37840000
