19
Properties=species:S:1:pos:R:3 gdb_110123=T pbc="F F F"
C        0.11200000       1.09710000       0.61680000
O       -0.15310000       0.18350000      -0.43500000
C       -1.35620000      -0.46750000      -0.29110000
C       -1.50720000      -1.78960000      -0.95690000
O       -0.43320000      -2.26900000      -1.67010000
C       -0.43380000      -3.68210000      -1.79010000
C       -1.44610000      -1.73630000       0.58600000
C       -0.28580000      -2.21300000       1.26950000
C        0.67240000      -2.62520000       1.87050000
H        1.07190000       1.56610000       0.39170000
H       -0.66320000       1.87640000       0.67330000
H        0.17500000       0.58500000       1.58460000
H       -2.23360000       0.18290000      -0.26240000
H       -2.48630000      -2.03080000      -1.37730000
H       -0.36760000      -4.16660000      -0.80840000
H       -1.33860000      -4.03840000      -2.30550000
H        0.44220000      -3.94770000      -2.38510000
H       -2.38910000      -1.88960000       1.10420000
H        1.52440000      -2.98450000       2.39170000
