18
Properties=species:S:1:pos:R:3 gdb_45549=T pbc="F F F"
N       -0.05250000       1.02230000      -0.68570000
C       -0.05020000      -0.07550000      -0.06460000
C       -1.27570000      -0.89270000       0.29360000
C       -0.70580000      -2.26470000       0.65560000
C       -0.52780000      -3.24790000      -0.51520000
O        0.62590000      -4.00470000      -0.19080000
C        1.56960000      -3.11550000       0.39450000
C        0.76360000      -1.96170000       1.02550000
O        1.07540000      -0.70680000       0.39410000
H        0.89870000       1.38010000      -0.78800000
H       -1.77820000      -0.42640000       1.14730000
H       -1.98640000      -0.90430000      -0.53490000
H       -1.23370000      -2.75120000       1.47750000
H       -1.36310000      -3.94130000      -0.63830000
H       -0.39050000      -2.69710000      -1.46140000
H        2.15300000      -3.68240000       1.12500000
H        2.25240000      -2.69670000      -0.35820000
H        0.94260000      -1.85260000       2.09850000
