20
Properties=species:S:1:pos:R:3 gdb_12102=T pbc="F F F"
C       -0.32030000       1.43480000      -0.84520000
C       -0.08460000       0.11830000      -0.13840000
C        1.27240000      -0.51370000      -0.16040000
C        0.73350000       0.07380000       1.13110000
O       -1.12930000      -0.82050000      -0.23950000
C       -2.29100000      -0.48450000       0.46300000
C       -3.44110000       0.16760000      -0.26320000
C       -3.50340000      -1.29370000       0.13780000
H        0.56770000       2.06990000      -0.77730000
H       -0.54010000       1.26660000      -1.90490000
H       -1.15990000       1.98110000      -0.40500000
H        1.30130000      -1.59430000      -0.23730000
H        2.07470000       0.00430000      -0.67450000
H        1.16670000       0.99520000       1.50560000
H        0.42370000      -0.62740000       1.89760000
H       -2.11650000      -0.20460000       1.50110000
H       -4.05700000       0.88520000       0.26850000
H       -3.29590000       0.38030000      -1.31590000
H       -3.39170000      -2.02670000      -0.65310000
H       -4.16210000      -1.59150000       0.94570000
