19
Properties=species:S:1:pos:R:3 gdb_108839=T pbc="F F F"
C       -0.02290000       1.34010000       0.04240000
O       -0.05040000      -0.08520000      -0.07410000
C        0.60200000      -0.58160000      -1.11870000
N        1.24030000       0.08750000      -1.99810000
C        1.78360000      -0.88140000      -2.96520000
C        3.26730000      -0.64750000      -3.24900000
C        1.42720000      -2.25480000      -2.37080000
C        1.89060000      -2.58170000      -1.00230000
N        0.53340000      -2.00590000      -1.21630000
H        1.00510000       1.69810000       0.14680000
H       -0.46610000       1.80560000      -0.84210000
H       -0.60460000       1.57580000       0.93390000
H        1.23520000      -0.76420000      -3.91060000
H        3.86470000      -0.75360000      -2.33870000
H        3.63720000      -1.36410000      -3.98960000
H        3.42150000       0.36210000      -3.63880000
H        1.13060000      -3.05910000      -3.03590000
H        1.88740000      -3.61250000      -0.66300000
H        2.63120000      -1.94170000      -0.53170000
