16
Properties=species:S:1:pos:R:3 gdb_9713=T pbc="F F F"
N       -0.17700000       1.38380000      -0.13260000
C        0.03600000      -0.06590000       0.06840000
C       -1.33270000      -0.82520000       0.09590000
C       -1.44530000      -1.56080000      -1.26250000
C       -0.04100000      -1.51370000      -1.80870000
C        0.76900000      -0.74880000      -1.08140000
C        0.76750000      -0.22560000       1.33670000
N        1.36400000      -0.36800000       2.31620000
H        0.72000000       1.86370000      -0.14390000
H       -0.57930000       1.51590000      -1.05790000
H       -1.33290000      -1.54730000       0.91420000
H       -2.13920000      -0.11410000       0.28200000
H       -1.80830000      -2.58710000      -1.14040000
H       -2.14880000      -1.07080000      -1.94870000
H        0.24800000      -2.03300000      -2.71600000
H        1.81500000      -0.54480000      -1.27900000
