19
Properties=species:S:1:pos:R:3 gdb_106634=T pbc="F F F"
O        0.04250000       1.33130000      -0.33010000
C        0.03290000      -0.03110000       0.06460000
C       -1.37210000      -0.56600000       0.13230000
C       -2.39290000       0.03880000       1.11280000
C       -3.67400000      -0.65700000       0.54980000
C       -2.99070000      -1.44650000      -0.57590000
O       -2.08750000      -0.44430000      -1.16420000
C       -1.74520000      -2.07890000       0.09520000
O       -0.95020000      -2.86750000      -0.74500000
H       -0.47260000       1.38460000      -1.14370000
H        0.63200000      -0.65660000      -0.61370000
H        0.49750000      -0.07890000       1.05530000
H       -2.17680000      -0.22460000       2.15190000
H       -2.41580000       1.12590000       1.02620000
H       -4.17640000      -1.30350000       1.27440000
H       -4.40200000       0.05370000       0.15410000
H       -3.59260000      -1.98210000      -1.31040000
H       -1.86380000      -2.61440000       1.04040000
H       -0.89640000      -2.39320000      -1.58520000
