15
Properties=species:S:1:pos:R:3 gdb_44699=T pbc="F F F"
N       -0.10490000       1.23190000      -0.56880000
C       -0.04340000       0.07260000      -0.10310000
O        0.99070000      -0.61480000       0.50560000
C        0.18570000      -1.83460000       0.63330000
C       -0.17290000      -2.17820000       2.06780000
C       -1.51560000      -1.47480000       2.32900000
O       -2.09370000      -1.37930000       3.38390000
N       -1.96360000      -0.98720000       1.11960000
C       -1.03130000      -1.08250000       0.02600000
H        0.77660000       1.73580000      -0.45690000
H        0.62960000      -2.63890000       0.04740000
H       -0.29470000      -3.25480000       2.21900000
H        0.57970000      -1.82400000       2.77540000
H       -2.77440000      -0.38830000       1.09060000
H       -1.48160000      -1.44180000      -0.90070000
