19
Properties=species:S:1:pos:R:3 gdb_22388=T pbc="F F F"
C       -0.08430000       1.54940000       0.02470000
C       -0.01390000       0.04420000       0.02290000
C        0.92240000      -0.81720000      -0.89050000
N        0.70740000      -1.93980000       0.10630000
C        0.64490000      -0.83270000       1.14090000
C       -0.75250000      -2.18960000      -0.09510000
C       -1.27830000      -0.75770000      -0.15600000
N       -2.43900000      -0.27480000      -0.31090000
O       -3.39480000      -1.30750000      -0.44940000
H        0.90710000       1.99200000       0.16350000
H       -0.49890000       1.91870000      -0.91850000
H       -0.73740000       1.90540000       0.82770000
H        0.61150000      -1.03650000      -1.91590000
H        1.96420000      -0.48790000      -0.86910000
H        1.65360000      -0.50520000       1.40470000
H        0.07070000      -1.06670000       2.04190000
H       -0.93090000      -2.74760000      -1.01830000
H       -1.17090000      -2.76100000       0.73800000
H       -4.21330000      -0.81180000      -0.55750000
