22
Properties=species:S:1:pos:R:3 gdb_118195=T pbc="F F F"
C        0.34780000       1.71980000      -0.48890000
C        0.04400000       0.23890000      -0.33390000
O        0.83840000      -0.48320000      -1.26240000
C        0.73650000      -1.90850000      -1.17480000
C       -0.57270000      -2.41470000      -1.78580000
C        1.95140000      -2.49980000      -1.90380000
C        3.29820000      -2.30800000      -1.20150000
N        3.62610000      -1.00840000      -0.95190000
O        4.02410000      -3.24410000      -0.92420000
H        1.39790000       1.93130000      -0.26440000
H        0.14270000       2.04820000      -1.51160000
H       -0.27230000       2.30700000       0.19490000
H        0.26460000      -0.09980000       0.69130000
H       -1.02490000       0.05490000      -0.51430000
H        0.77590000      -2.19940000      -0.11220000
H       -0.63270000      -3.50390000      -1.70310000
H       -1.44590000      -1.99660000      -1.27760000
H       -0.62760000      -2.14290000      -2.84460000
H        1.81950000      -3.57680000      -2.01960000
H        1.99610000      -2.05300000      -2.90460000
H        2.92000000      -0.29560000      -1.05240000
H        4.45840000      -0.82880000      -0.41430000
