17
Properties=species:S:1:pos:R:3 gdb_42984=T pbc="F F F"
O        0.11850000       0.08450000       0.26960000
C        0.02690000       1.27890000       0.10490000
C       -1.21180000       2.07230000      -0.17730000
N       -1.29880000       3.25920000       0.73070000
C       -0.77700000       3.42990000      -0.62730000
C        0.74630000       3.50870000      -0.65850000
C        1.19590000       2.23360000       0.04660000
C        2.20430000       2.13730000       1.14250000
N        2.52310000       1.65850000      -0.19990000
H       -2.11600000       1.57750000      -0.50930000
H       -2.27440000       3.54810000       0.76140000
H       -1.36160000       3.98310000      -1.35480000
H        1.10590000       3.50610000      -1.69290000
H        1.11210000       4.41800000      -0.17320000
H        2.72100000       3.04310000       1.44810000
H        2.02280000       1.41090000       1.93010000
H        2.41180000       0.64300000      -0.22220000
