22
Properties=species:S:1:pos:R:3 gdb_121992=T pbc="F F F"
C       -0.34350000       1.38300000      -0.02710000
O       -0.21070000      -0.01720000      -0.00570000
C       -1.45560000      -0.68480000      -0.00270000
C       -1.18300000      -2.18350000       0.03320000
C       -2.45320000      -3.04890000       0.01840000
C       -2.12140000      -4.53790000      -0.11670000
N       -3.27810000      -2.83340000       1.20820000
C       -4.40930000      -2.08180000       1.21410000
O       -4.85350000      -1.47460000       0.26110000
H        0.66320000       1.80850000      -0.02340000
H       -0.87330000       1.73130000      -0.92810000
H       -0.89050000       1.75640000       0.85350000
H       -2.05450000      -0.37510000       0.86870000
H       -2.04100000      -0.42150000      -0.89930000
H       -0.56720000      -2.44420000      -0.83530000
H       -0.58370000      -2.41630000       0.92300000
H       -3.08390000      -2.73890000      -0.82030000
H       -1.51070000      -4.88420000       0.72610000
H       -3.03420000      -5.13900000      -0.14790000
H       -1.55340000      -4.72370000      -1.03250000
H       -3.00230000      -3.28190000       2.06860000
H       -4.89770000      -2.08230000       2.20940000
