20
Properties=species:S:1:pos:R:3 gdb_41644=T pbc="F F F"
C       -0.03360000       1.53430000      -0.24050000
C        1.36780000       2.13050000      -0.02600000
C        1.99440000       1.64810000       1.28270000
C        1.18540000       1.62460000       2.57640000
C        0.35050000       0.38320000       2.58020000
C        0.63020000      -0.38040000       1.28890000
C       -0.05660000       0.01240000      -0.01950000
C        2.07390000       0.12240000       1.51400000
N        1.78350000       0.32230000       3.03150000
H       -0.73080000       2.00530000       0.46280000
H       -0.39630000       1.77510000      -1.24550000
H        2.02880000       1.84100000      -0.85500000
H        1.31610000       3.22580000      -0.04310000
H        2.96920000       2.11060000       1.46460000
H        1.01220000       2.43540000       3.27580000
H       -0.46370000       0.24080000       3.28250000
H        0.57010000      -1.45690000       1.47560000
H       -1.09050000      -0.35290000      -0.03220000
H        0.45860000      -0.49410000      -0.84780000
H        2.93870000      -0.46010000       1.20000000
