22
Properties=species:S:1:pos:R:3 gdb_62956=T pbc="F F F"
C       -0.17760000       1.57420000       0.02720000
C       -0.00280000       0.06060000       0.02940000
C       -1.34100000      -0.64240000      -0.17540000
N        0.95090000      -0.48560000      -1.03240000
C        2.31510000      -0.00800000      -0.73540000
C        1.77610000      -1.11320000       0.07880000
C        0.85620000      -0.58040000       1.14750000
C        1.23240000      -0.05320000       2.50270000
C        0.38720000      -1.30100000       2.37290000
H        0.75850000       2.10790000       0.20770000
H       -0.58100000       1.90530000      -0.93570000
H       -0.88390000       1.87750000       0.80790000
H       -1.79050000      -0.32470000      -1.12160000
H       -1.20710000      -1.72660000      -0.21070000
H       -2.03860000      -0.40450000       0.63450000
H        3.01520000      -0.25450000      -1.52840000
H        2.47250000       0.96690000      -0.28260000
H        2.13750000      -2.13520000       0.00900000
H        2.26310000      -0.15730000       2.82700000
H        0.74530000       0.85290000       2.84900000
H       -0.66240000      -1.23910000       2.64120000
H        0.84690000      -2.25630000       2.60720000
