17
Properties=species:S:1:pos:R:3 gdb_2370=T pbc="F F F"
C        0.43640000       0.62870000      -0.64170000
C        0.04260000      -0.03020000       0.67880000
O       -0.20460000       0.95990000       1.68120000
C       -1.13770000      -0.99610000       0.63400000
C       -2.24740000      -0.93720000      -0.40450000
C       -1.31230000      -2.12010000      -0.34450000
O       -0.33750000      -2.29750000      -1.33450000
H        1.29930000       1.27820000      -0.47300000
H        0.68360000      -0.11990000      -1.39600000
H       -0.38020000       1.25110000      -1.02800000
H        0.90770000      -0.58350000       1.06410000
H       -0.96440000       1.47530000       1.38760000
H       -1.46200000      -1.23690000       1.64280000
H       -3.27810000      -1.05720000      -0.08800000
H       -2.10750000      -0.26500000      -1.24430000
H       -1.70900000      -3.05310000       0.05600000
H       -0.78290000      -2.57830000      -2.14060000
