21
Properties=species:S:1:pos:R:3 gdb_115520=T pbc="F F F"
C       -0.06430000       1.56540000      -0.09100000
C       -0.01880000       0.02960000      -0.00860000
C        1.15620000      -0.55980000      -0.87000000
C        2.02720000      -0.64600000       0.40920000
C        0.73610000      -0.53390000       1.25760000
C        0.74790000       0.26160000       2.54670000
O        1.54540000      -0.46060000       3.47660000
C       -1.33870000      -0.53090000      -0.24730000
C       -2.42900000      -1.00210000      -0.44060000
H        0.93030000       1.99820000       0.05300000
H       -0.42720000       1.87290000      -1.07620000
H       -0.73780000       1.98690000       0.66080000
H        0.90230000      -1.54460000      -1.26710000
H        1.50760000       0.07270000      -1.68910000
H        2.63170000      -1.54370000       0.54560000
H        2.67610000       0.22620000       0.53270000
H        0.34950000      -1.53300000       1.47800000
H        1.16000000       1.26800000       2.37470000
H       -0.28380000       0.38580000       2.91560000
H        1.59320000       0.04930000       4.29060000
H       -3.38920000      -1.42120000      -0.61280000
