18
Properties=species:S:1:pos:R:3 gdb_105562=T pbc="F F F"
C       -0.09820000       1.50280000      -0.06470000
N        0.03460000       0.04400000      -0.06590000
C        0.78850000      -0.50240000      -1.19920000
C        0.64440000      -2.06410000      -1.22220000
C       -0.54080000      -1.96990000      -2.22620000
C       -0.19130000      -0.49290000      -2.42830000
O       -0.49010000       0.34270000      -3.22550000
C        2.12390000       0.04380000      -1.39430000
C        3.22520000       0.50340000      -1.55080000
H        0.86410000       2.03560000      -0.05040000
H       -0.64440000       1.81770000      -0.95770000
H       -0.67930000       1.79900000       0.81290000
H        0.48710000      -0.25900000       0.79190000
H        1.52490000      -2.54600000      -1.64840000
H        0.41870000      -2.50220000      -0.24960000
H       -0.49230000      -2.58420000      -3.12810000
H       -1.52400000      -2.09600000      -1.76580000
H        4.19590000       0.90980000      -1.69540000
