17
Properties=species:S:1:pos:R:3 gdb_69203=T pbc="F F F"
C       -0.08280000       1.52760000       0.05820000
C       -0.04000000       0.01730000       0.05280000
C       -1.12620000      -0.68220000      -0.74570000
C       -1.23640000      -2.15830000      -0.50110000
C       -0.64620000      -2.80610000       0.50940000
C        0.17770000      -2.11090000       1.51540000
O        0.48620000      -2.61190000       2.57920000
C        0.60670000      -0.71070000       1.17000000
O        1.25610000      -0.55580000      -0.10490000
H        0.77000000       1.93200000       0.60800000
H       -0.04480000       1.91540000      -0.96590000
H       -1.00530000       1.89090000       0.52260000
H       -2.09750000      -0.21220000      -0.53330000
H       -0.94630000      -0.50000000      -1.81460000
H       -1.86960000      -2.70870000      -1.19340000
H       -0.79490000      -3.86860000       0.67150000
H        1.06330000      -0.16340000       1.99270000
