17
Properties=species:S:1:pos:R:3 gdb_23493=T pbc="F F F"
O       -0.13560000       1.32550000      -0.02180000
N        0.04540000      -0.07560000      -0.01090000
C       -1.07050000      -0.66310000       0.11280000
C       -1.42350000      -2.09360000       0.05240000
C       -2.57810000      -2.37440000       0.96690000
C       -2.85610000      -1.45870000       2.15510000
C       -3.12770000      -0.08870000       1.48140000
C       -2.53800000      -0.28020000       0.08540000
N       -2.86840000      -1.72760000      -0.32140000
H        0.76310000       1.64260000      -0.15960000
H       -0.86720000      -2.87840000      -0.44790000
H       -2.88410000      -3.41540000       1.01600000
H       -3.72110000      -1.81340000       2.72140000
H       -2.00610000      -1.42100000       2.84220000
H       -4.20260000       0.10220000       1.40380000
H       -2.66810000       0.75080000       2.00770000
H       -2.82350000       0.45680000      -0.66410000
