18
Properties=species:S:1:pos:R:3 gdb_103048=T pbc="F F F"
C        0.17320000       1.46920000      -0.18390000
C       -0.13610000      -0.00560000       0.09590000
C        0.66660000      -0.56960000       1.26260000
C        0.53200000       0.15110000       2.50590000
N        0.42170000       0.73750000       3.49780000
C        0.91590000      -2.06860000       1.50690000
C        1.15890000      -2.77140000       0.17760000
O        2.17580000      -1.79350000      -0.18830000
C        2.05390000      -1.18010000       1.08710000
H        1.22880000       1.60550000      -0.43890000
H       -0.42570000       1.83180000      -1.02410000
H       -0.04850000       2.09630000       0.68470000
H       -1.20420000      -0.13570000       0.30420000
H        0.09640000      -0.59610000      -0.79320000
H        0.69140000      -2.53690000       2.45480000
H        1.61480000      -3.75880000       0.30130000
H        0.34150000      -2.82460000      -0.54810000
H        2.94790000      -0.82000000       1.58160000
