20
Properties=species:S:1:pos:R:3 gdb_121000=T pbc="F F F"
O        0.21110000       1.35810000      -0.09250000
C        0.04700000      -0.04940000       0.02210000
C       -1.44050000      -0.34890000       0.14180000
N       -2.15510000      -0.07750000      -1.08710000
C       -2.48340000       1.33250000      -1.43540000
C       -3.92430000       0.90900000      -1.76980000
O       -4.09830000       0.33410000      -3.08080000
C       -3.94070000      -1.01450000      -2.56870000
C       -3.57740000      -0.47710000      -1.17520000
H        1.12340000       1.53790000      -0.33570000
H        0.44230000      -0.57170000      -0.86080000
H        0.56560000      -0.43590000       0.91440000
H       -1.55420000      -1.41500000       0.37340000
H       -1.83960000       0.21940000       1.00550000
H       -2.44020000       2.00740000      -0.56900000
H       -1.88960000       1.75550000      -2.25000000
H       -4.75110000       1.56240000      -1.48360000
H       -4.88810000      -1.56810000      -2.62050000
H       -3.14840000      -1.56960000      -3.08140000
H       -4.01980000      -0.92600000      -0.28280000
