19
Properties=species:S:1:pos:R:3 gdb_16775=T pbc="F F F"
O        0.32540000       1.03200000      -0.49910000
C       -0.05100000      -0.32500000      -0.30080000
C       -1.49490000      -0.47290000       0.20450000
C       -2.56250000      -0.03520000      -0.84220000
C       -3.09340000      -1.32030000      -1.44800000
N       -2.02080000      -2.22290000      -1.92680000
C       -2.66010000      -2.46580000      -0.61330000
C       -1.84030000      -1.95090000       0.55460000
H       -0.07120000       1.33100000      -1.32210000
H        0.08960000      -0.92300000      -1.20940000
H        0.63290000      -0.71020000       0.46430000
H       -1.57340000       0.15740000       1.09550000
H       -3.38690000       0.49960000      -0.35710000
H       -2.15090000       0.64270000      -1.59900000
H       -4.04380000      -1.31890000      -1.97280000
H       -2.40940000      -2.86840000      -2.61000000
H       -3.27520000      -3.35190000      -0.49190000
H       -0.93950000      -2.55040000       0.72770000
H       -2.44580000      -2.00370000       1.46640000
