18
Properties=species:S:1:pos:R:3 gdb_103519=T pbc="F F F"
O       -0.07730000       1.44840000       0.10290000
C        0.03130000       0.02750000       0.00070000
C       -1.40500000      -0.50080000      -0.04000000
O       -2.09800000      -0.03570000       1.11490000
C       -2.13100000      -0.13340000      -1.33060000
C       -2.62020000      -1.20460000      -1.95790000
C       -2.25520000      -2.45530000      -1.23050000
N       -0.77540000      -2.66790000      -1.16840000
C       -1.48160000      -2.02740000      -0.04000000
H        0.79280000       1.81160000       0.28830000
H        0.57250000      -0.27810000      -0.90140000
H        0.54020000      -0.38910000       0.88220000
H       -1.82230000       0.88370000       1.22680000
H       -2.19290000       0.89370000      -1.66970000
H       -3.17180000      -1.19800000      -2.89060000
H       -2.90190000      -3.32570000      -1.22910000
H       -0.59640000      -3.63980000      -0.91760000
H       -1.54760000      -2.52610000       0.92050000
