18
Properties=species:S:1:pos:R:3 gdb_74600=T pbc="F F F"
C       -0.03940000       1.52300000       0.04970000
C       -0.03990000       0.03220000      -0.03860000
C       -0.06010000      -0.75540000      -1.12250000
C        0.04130000      -2.17910000      -0.66580000
C        1.38000000      -2.56800000       0.01930000
C        1.40000000      -1.67140000       1.26970000
C        0.63850000      -2.95600000       1.25480000
N       -0.58610000      -2.19100000       0.72790000
C        0.06820000      -0.88210000       1.15490000
H        0.87820000       1.89330000       0.52490000
H       -0.11560000       1.98380000      -0.93890000
H       -0.87490000       1.88480000       0.66200000
H       -0.07310000      -0.43360000      -2.15700000
H       -0.37280000      -2.94910000      -1.31820000
H        2.28760000      -2.98040000      -0.40340000
H        2.32100000      -1.41740000       1.77910000
H        0.60630000      -3.83240000       1.88540000
H       -0.31900000      -0.50670000       2.10440000
