17
Properties=species:S:1:pos:R:3 gdb_56422=T pbc="F F F"
C       -0.00200000       1.46720000      -0.22780000
C        0.00820000      -0.05170000       0.08080000
C        0.82610000      -0.34580000       1.26310000
C        1.51170000      -0.56310000       2.22490000
C       -1.35600000      -0.57270000       0.22860000
C       -2.48790000      -0.96470000       0.34480000
C       -3.83500000      -1.50380000       0.46060000
C       -3.93130000      -2.94230000      -0.05510000
O       -4.87480000      -3.36870000      -0.66250000
H        1.02060000       1.82420000      -0.37210000
H       -0.58090000       1.65880000      -1.13450000
H       -0.45260000       2.01850000       0.60030000
H        0.47060000      -0.55950000      -0.77830000
H        2.11300000      -0.76530000       3.07660000
H       -4.14190000      -1.52730000       1.51780000
H       -4.57610000      -0.89920000      -0.07220000
H       -3.05220000      -3.57540000       0.19320000
