17
Properties=species:S:1:pos:R:3 gdb_99505=T pbc="F F F"
C        0.89460000       1.44000000      -0.16460000
O        0.98930000       0.01190000      -0.27540000
C       -0.00180000      -0.57900000      -0.95850000
O       -0.93870000       0.00340000      -1.44050000
C        0.20230000      -2.09640000      -1.01960000
C       -1.00700000      -2.78540000      -1.69740000
O       -0.87460000      -4.18830000      -1.69180000
C        1.44160000      -2.44360000      -1.70920000
C        2.41750000      -2.77830000      -2.32690000
H        0.89460000       1.90140000      -1.15490000
H       -0.02200000       1.72460000       0.35780000
H        1.77150000       1.75000000       0.40300000
H        0.26870000      -2.45620000       0.01570000
H       -1.91230000      -2.54820000      -1.13410000
H       -1.12670000      -2.37780000      -2.70950000
H       -0.07110000      -4.40310000      -2.18050000
H        3.30030000      -3.05160000      -2.85060000
