19
Properties=species:S:1:pos:R:3 gdb_41493=T pbc="F F F"
C       -0.02690000       1.50770000       0.09520000
O        1.27080000       1.92310000      -0.32730000
C        2.09030000       0.78710000      -0.60030000
C        1.21120000      -0.40090000      -0.33470000
C        0.00460000       0.00660000       0.05180000
C       -1.10850000      -0.94490000       0.36170000
C       -0.73250000      -2.32440000      -0.20440000
O        0.59670000      -2.68790000       0.13230000
C        1.57640000      -1.84710000      -0.45550000
H       -0.23510000       1.89740000       1.10530000
H       -0.79110000       1.93260000      -0.57610000
H        2.44970000       0.82940000      -1.64140000
H        2.98220000       0.80480000       0.04760000
H       -1.27710000      -1.00860000       1.44530000
H       -2.05590000      -0.61010000      -0.08100000
H       -1.37170000      -3.11030000       0.20650000
H       -0.86110000      -2.31700000      -1.29930000
H        1.73410000      -2.11770000      -1.51620000
H        2.51490000      -2.06570000       0.06880000
