15
Properties=species:S:1:pos:R:3 gdb_31203=T pbc="F F F"
C       -0.07730000       1.46510000      -0.11920000
N        0.29790000       0.07090000       0.07850000
C        0.70920000      -0.69710000      -0.96890000
C        0.70170000      -2.05430000      -1.19900000
N        1.34310000      -2.28670000      -2.42480000
C        1.67420000      -1.12390000      -2.85010000
O        1.31990000      -0.08840000      -2.01310000
C        0.15300000      -3.04610000      -0.36440000
C       -0.33750000      -3.85490000       0.38400000
H        0.75010000       2.00250000      -0.58680000
H       -0.97020000       1.58920000      -0.74840000
H       -0.26870000       1.91460000       0.85710000
H       -0.27110000      -0.44920000       0.73100000
H        2.17640000      -0.84450000      -3.76140000
H       -0.75660000      -4.58340000       1.03230000
