23
Properties=species:S:1:pos:R:3 gdb_101901=T pbc="F F F"
C       -0.14680000       1.41970000       0.06810000
O        0.13590000       0.04380000      -0.02850000
C        0.66210000      -0.54720000       1.15540000
C       -0.42430000      -0.77220000       2.21090000
C        1.32530000      -1.85900000       0.73080000
C        2.48150000      -1.66280000      -0.25450000
C        3.11260000      -2.99190000      -0.70350000
C        4.17710000      -2.77960000      -1.75400000
O        5.31800000      -3.15640000      -1.67420000
H        0.73810000       1.99580000       0.38170000
H       -0.44970000       1.75640000      -0.92680000
H       -0.96430000       1.63820000       0.77030000
H        1.43430000       0.12320000       1.57360000
H       -1.20130000      -1.43680000       1.81980000
H        0.00290000      -1.22840000       3.10950000
H       -0.89700000       0.16720000       2.51090000
H        1.68130000      -2.37870000       1.62860000
H        0.55830000      -2.50020000       0.27690000
H        2.11050000      -1.11230000      -1.12540000
H        3.25430000      -1.03460000       0.20750000
H        3.55300000      -3.53940000       0.13540000
H        2.33160000      -3.62520000      -1.15040000
H        3.82330000      -2.21590000      -2.65040000
