18
Properties=species:S:1:pos:R:3 gdb_87663=T pbc="F F F"
C       -0.09690000       1.52660000      -0.03590000
C        0.01430000       0.01950000      -0.00760000
C        1.33740000      -0.66950000      -0.21940000
C        0.69450000      -0.69080000       1.15680000
N        1.24730000       0.00760000       2.27440000
C        1.12570000      -0.71000000       3.45570000
O        1.56930000      -0.38370000       4.53690000
C        0.35410000      -1.92860000       3.07800000
C        0.12740000      -1.91680000       1.75930000
H        0.80460000       2.00800000       0.35500000
H       -0.24070000       1.88330000      -1.06130000
H       -0.94350000       1.87290000       0.56520000
H       -0.85460000      -0.50160000      -0.40150000
H        1.37730000      -1.59610000      -0.78170000
H        2.21720000      -0.04240000      -0.32850000
H        1.87630000       0.78910000       2.20710000
H        0.06430000      -2.67540000       3.80240000
H       -0.40330000      -2.65430000       1.17080000
