18
Properties=species:S:1:pos:R:3 gdb_110483=T pbc="F F F"
O        0.08970000       1.40370000       0.20650000
C        0.14100000       0.02250000      -0.11520000
C       -1.24610000      -0.58290000      -0.09270000
C       -1.53190000      -2.09760000      -0.11300000
C       -0.88840000      -2.67400000       1.17260000
C       -2.18190000      -2.63000000       1.97050000
C       -1.19790000      -1.50960000       2.11610000
N       -1.95090000      -0.53790000       1.25510000
C       -2.75540000      -1.78140000       0.81350000
H       -0.52360000       1.48870000       0.94660000
H        0.57670000      -0.05570000      -1.11780000
H        0.80150000      -0.52620000       0.57460000
H       -1.89310000      -0.05340000      -0.80230000
H       -1.56930000      -2.70740000      -1.01500000
H       -0.03430000      -3.32680000       1.28520000
H       -2.61810000      -3.30530000       2.69290000
H       -0.58360000      -1.21070000       2.95470000
H       -3.78890000      -1.64940000       0.50030000
