21
Properties=species:S:1:pos:R:3 gdb_91035=T pbc="F F F"
C       -0.42810000       1.52750000      -0.01680000
C        0.00960000       0.06900000      -0.02510000
C        1.07000000      -0.46240000      -1.05540000
C        1.82560000      -1.20000000       0.09410000
C        3.02750000      -0.50530000       0.78100000
C        2.90690000       0.98950000       0.77040000
C        2.07170000       0.21200000       1.74820000
C        0.86720000      -0.53390000       1.13190000
O        0.21270000      -1.23110000       2.15380000
H        0.41950000       2.21260000       0.06580000
H       -0.97550000       1.78120000      -0.93140000
H       -1.09230000       1.72390000       0.83210000
H       -0.88910000      -0.55950000      -0.10460000
H        0.65590000      -1.12370000      -1.81990000
H        1.64690000       0.31370000      -1.56380000
H        1.89560000      -2.28580000       0.02850000
H        3.97010000      -0.99320000       0.99850000
H        3.74210000       1.51250000       1.22720000
H        2.47920000       1.52300000      -0.06990000
H        2.15690000       0.35760000       2.81820000
H       -0.43290000      -1.82040000       1.74890000
