20
Properties=species:S:1:pos:R:3 gdb_82402=T pbc="F F F"
C        0.06020000       1.59000000       0.05660000
C        0.08590000       0.05840000       0.01870000
C        0.71240000      -0.53260000      -1.24480000
C        2.10610000      -0.20310000      -1.73440000
C        1.80860000      -1.56370000      -1.14820000
N        2.30050000      -1.80560000       0.18290000
C        1.25440000      -1.92840000       1.19360000
C        0.62050000      -0.54490000       1.32580000
O        0.51670000       0.02340000       2.38610000
H        1.07550000       1.99630000       0.02760000
H       -0.48720000       1.98730000      -0.80310000
H       -0.41590000       1.93840000       0.97490000
H       -0.95990000      -0.29270000       0.02410000
H       -0.00530000      -0.70140000      -2.04180000
H        2.25070000      -0.09980000      -2.80440000
H        2.73160000       0.43430000      -1.11990000
H        1.74940000      -2.41970000      -1.82100000
H        2.96510000      -2.56570000       0.21930000
H        0.47110000      -2.67170000       0.94920000
H        1.69420000      -2.19420000       2.15700000
