18
Properties=species:S:1:pos:R:3 gdb_124999=T pbc="F F F"
C       -0.14260000       1.60210000       0.07480000
C       -0.02090000       0.11270000      -0.00320000
C        0.05420000      -0.70170000      -1.11950000
C        0.09020000      -0.39920000      -2.58180000
O       -0.39580000      -1.54250000      -3.27720000
N        0.14300000      -1.97480000      -0.67200000
N        0.11350000      -2.06660000       0.68050000
C        0.02260000      -0.80330000       1.08350000
N       -0.09780000      -0.48110000       2.44000000
H        0.81510000       2.09820000       0.28370000
H       -0.52210000       2.02540000      -0.86090000
H       -0.83530000       1.89180000       0.87280000
H       -0.52060000       0.49300000      -2.78840000
H        1.11950000      -0.16360000      -2.89860000
H       -0.19600000      -1.43300000      -4.21120000
H        0.09650000      -2.80190000      -1.24080000
H        0.07920000      -1.29310000       3.01890000
H        0.50980000       0.27810000       2.72120000
