12
Properties=species:S:1:pos:R:3 gdb_43662=T pbc="F F F"
O       -0.01100000       0.00790000      -0.18100000
C       -0.05780000       1.19490000      -0.04770000
C       -1.27570000       2.08430000       0.11980000
C       -0.69010000       3.51490000       0.04610000
O        0.74860000       3.40310000       0.11640000
C        1.18130000       2.11410000       0.00840000
O        2.32890000       1.80300000      -0.00850000
C       -1.05880000       4.21470000      -1.19140000
N       -1.37930000       4.75700000      -2.15900000
H       -2.02570000       1.88300000      -0.64600000
H       -1.72930000       1.89540000       1.09720000
H       -0.99830000       4.13080000       0.89440000
