18
Properties=species:S:1:pos:R:3 gdb_32453=T pbc="F F F"
C       -0.04180000       1.34550000      -0.02720000
O       -0.06250000      -0.06880000       0.02970000
C        0.62940000      -0.61100000       1.06200000
C        1.35590000      -0.03920000       2.06190000
O        1.87340000      -1.01950000       2.86030000
C        1.45540000      -2.22710000       2.36600000
C        1.88890000      -3.45120000       3.08600000
C        0.69250000      -2.03400000       1.25230000
N        0.02820000      -2.98280000       0.45180000
H        0.98490000       1.72020000      -0.13730000
H       -0.63180000       1.63760000      -0.89720000
H       -0.48340000       1.78180000       0.87890000
H        1.59230000       0.97420000       2.33290000
H        1.73820000      -3.34600000       4.16590000
H        1.29770000      -4.30570000       2.74480000
H        2.94930000      -3.68590000       2.92550000
H        0.63540000      -3.73380000       0.14780000
H       -0.36940000      -2.53700000      -0.36620000
