17
Properties=species:S:1:pos:R:3 gdb_36334=T pbc="F F F"
N       -0.55350000      -0.89500000      -0.74470000
C       -0.35960000       0.21250000      -0.47850000
C       -0.08140000       1.60730000      -0.13920000
C        1.35650000       1.80800000       0.36820000
C        2.45470000       1.63340000      -0.71910000
C        2.54170000       3.18930000      -0.84790000
C        1.75680000       3.30530000       0.49930000
C        3.85970000       3.79490000      -0.91740000
N        4.91450000       4.26750000      -0.95230000
H       -0.26900000       2.22230000      -1.02810000
H       -0.79710000       1.93360000       0.62430000
H        1.50160000       1.20780000       1.26810000
H        3.37430000       1.20990000      -0.31270000
H        2.18420000       1.08510000      -1.62340000
H        1.94490000       3.55320000      -1.68860000
H        0.95140000       4.04280000       0.52660000
H        2.42570000       3.48180000       1.34300000
