17
Properties=species:S:1:pos:R:3 gdb_17946=T pbc="F F F"
C       -0.12840000       1.49560000      -0.04160000
C        0.08610000       0.01880000       0.04170000
C        0.82180000      -0.87130000      -0.87170000
C        1.71900000      -1.79390000      -0.06060000
O        1.37170000      -1.55000000       1.30860000
C        0.09910000      -0.92340000       1.27690000
C       -0.93310000      -1.77650000       0.50470000
N       -0.66780000      -1.01720000      -0.76660000
H        0.70830000       2.03690000       0.41450000
H       -0.21160000       1.81160000      -1.08570000
H       -1.04620000       1.79760000       0.47460000
H        1.14400000      -0.53320000      -1.85030000
H        1.57320000      -2.85330000      -0.31330000
H        2.77800000      -1.55310000      -0.20720000
H       -0.13700000      -0.55130000       2.27350000
H       -0.75360000      -2.85600000       0.46480000
H       -1.96720000      -1.59080000       0.80550000
