19
Properties=species:S:1:pos:R:3 gdb_46382=T pbc="F F F"
O        0.25080000       0.18410000      -0.59500000
C        0.14070000       1.31860000      -0.22980000
C       -1.05060000       2.23510000       0.10530000
C       -0.06850000       3.06550000       0.98670000
C        1.14310000       2.37220000       0.30710000
O        2.16460000       1.95210000       1.16610000
C        3.23000000       1.32480000       0.50240000
C        4.30890000       2.18580000      -0.10420000
C        4.55750000       1.41220000       1.17700000
H       -1.40880000       2.77570000      -0.77650000
H       -1.90230000       1.75490000       0.59110000
H       -0.11680000       4.15070000       0.89950000
H       -0.12170000       2.77870000       2.03880000
H        1.53970000       2.97220000      -0.52860000
H        2.95290000       0.40440000      -0.00470000
H        4.78600000       1.85470000      -1.01990000
H        4.19420000       3.26020000      -0.01100000
H        4.59300000       1.98440000       2.09700000
H        5.20760000       0.54540000       1.15210000
