15
Properties=species:S:1:pos:R:3 gdb_108745=T pbc="F F F"
C       -0.07740000       1.41460000       0.12090000
N        0.04200000      -0.01260000      -0.07010000
C        0.64400000      -0.57710000      -1.12300000
C        1.26620000      -0.09330000      -2.22840000
C        1.72950000      -1.23220000      -3.02790000
O        2.32420000      -1.26520000      -4.07750000
N        1.33560000      -2.40750000      -2.31490000
C        0.67720000      -2.09410000      -1.15870000
O        0.20730000      -2.82740000      -0.31710000
H        0.90960000       1.89030000       0.17930000
H       -0.63210000       1.87870000      -0.70420000
H       -0.61230000       1.61020000       1.05130000
H       -0.33550000      -0.65780000       0.60840000
H        1.42880000       0.92870000      -2.53070000
H        1.52630000      -3.34230000      -2.63690000
