21
Properties=species:S:1:pos:R:3 gdb_119888=T pbc="F F F"
C        0.01970000       1.54520000      -0.12110000
C       -0.00770000       0.03380000       0.01090000
O        0.68930000      -0.51130000      -1.11960000
C        0.75800000      -1.85550000      -1.20480000
N        0.26210000      -2.60980000      -0.31520000
C        0.35370000      -4.05560000      -0.50560000
C        0.68390000      -4.48380000      -1.94070000
N        1.78560000      -3.70690000      -2.51650000
C        1.47420000      -2.28060000      -2.47360000
H        1.04810000       1.91800000      -0.13230000
H       -0.47070000       1.86590000      -1.04470000
H       -0.50330000       2.00290000       0.72400000
H        0.47900000      -0.30660000       0.93110000
H       -1.02980000      -0.35980000       0.02590000
H        1.11580000      -4.44540000       0.18620000
H       -0.59630000      -4.50220000      -0.18460000
H        0.93660000      -5.54870000      -1.97820000
H       -0.19490000      -4.33750000      -2.58260000
H        2.62390000      -3.87540000      -1.96760000
H        0.84070000      -2.01440000      -3.33180000
H        2.39180000      -1.69410000      -2.57980000
