27
Properties=species:S:1:pos:R:3 gdb_122136=T pbc="F F F"
C        0.75270000       2.45570000      -0.81070000
C        0.44870000       0.96530000      -0.63600000
C        1.09440000       0.08790000      -1.71440000
C        0.77690000      -1.40330000      -1.55160000
C        1.44180000      -2.31740000      -2.60310000
C        2.94960000      -2.50370000      -2.31940000
C        3.80790000      -2.87050000      -3.53570000
C        0.68370000      -3.64680000      -2.65290000
O        1.19890000      -4.46620000      -3.69400000
H        1.83090000       2.64710000      -0.77100000
H        0.38910000       2.82310000      -1.77690000
H        0.27950000       3.05600000      -0.02720000
H        0.79290000       0.63430000       0.35290000
H       -0.63840000       0.80930000      -0.64460000
H        0.75360000       0.42130000      -2.70460000
H        2.18030000       0.24820000      -1.70060000
H        1.07690000      -1.73400000      -0.54680000
H       -0.31370000      -1.52870000      -1.59650000
H        1.32720000      -1.84540000      -3.58970000
H        3.34280000      -1.57730000      -1.88410000
H        3.06500000      -3.26990000      -1.54000000
H        3.74130000      -2.09430000      -4.30680000
H        4.86190000      -2.96380000      -3.25260000
H        3.48010000      -3.81120000      -3.97970000
H        0.77480000      -4.14960000      -1.67480000
H       -0.38720000      -3.44510000      -2.81640000
H        0.73760000      -5.30920000      -3.66770000
