19
Properties=species:S:1:pos:R:3 gdb_108990=T pbc="F F F"
O       -0.02210000       1.40040000      -0.02300000
C       -0.04220000      -0.01550000      -0.03740000
C       -1.44770000      -0.48970000       0.01690000
C       -2.61800000       0.15150000       0.02490000
C       -3.64190000      -0.99480000       0.05550000
C       -3.01740000      -1.96970000      -1.00480000
C       -1.86970000      -1.97880000       0.04750000
O       -0.88930000      -2.96940000      -0.02150000
C       -3.00120000      -1.93210000       1.13580000
H        0.88970000       1.68600000      -0.12860000
H        0.44300000      -0.42160000      -0.94240000
H        0.52520000      -0.43230000       0.81650000
H       -2.82100000       1.21160000       0.00490000
H       -4.70270000      -0.75470000       0.06120000
H       -3.53390000      -2.93180000      -1.07650000
H       -2.79110000      -1.56380000      -1.99280000
H       -0.39680000      -2.96890000       0.80630000
H       -2.75820000      -1.48900000       2.10490000
H       -3.51820000      -2.89010000       1.25060000
