17
Properties=species:S:1:pos:R:3 gdb_28942=T pbc="F F F"
N        0.19660000       1.36640000       0.07120000
C        0.00380000      -0.02680000       0.04320000
C       -1.12430000      -0.81450000      -0.01720000
C       -0.68850000      -2.16910000      -0.11370000
C        0.68200000      -2.16740000      -0.09780000
N        1.10410000      -0.85290000      -0.02120000
C        2.47850000      -0.39010000      -0.00200000
C        2.92740000       0.05760000       1.31930000
C        3.27640000       0.44980000       2.40010000
H        0.62730000       1.68130000       0.93660000
H       -0.68350000       1.85200000      -0.04510000
H       -2.14270000      -0.45760000       0.01100000
H       -1.31710000      -3.04390000      -0.17860000
H        1.40070000      -2.97040000      -0.12560000
H        3.11390000      -1.20640000      -0.35890000
H        2.57770000       0.43830000      -0.71340000
H        3.59470000       0.77940000       3.35840000
