18
Properties=species:S:1:pos:R:3 gdb_88416=T pbc="F F F"
C       -0.52860000       1.33990000       0.04830000
N        0.00100000      -0.01760000       0.08530000
C        1.39530000      -0.22500000      -0.28340000
C        0.93880000      -0.42330000       1.12390000
C        1.41780000       0.52110000       2.23390000
C        0.41900000       0.48230000       3.38350000
O       -0.19970000       1.43540000       3.77480000
C        2.79040000       0.03700000       2.68700000
O        3.80190000       0.67310000       2.56000000
H        0.22160000       2.12720000       0.21600000
H       -0.97240000       1.50550000      -0.93780000
H       -1.31460000       1.44650000       0.80120000
H        1.60570000      -1.07620000      -0.92540000
H        2.00870000       0.65530000      -0.47560000
H        0.77430000      -1.44260000       1.47450000
H        1.51940000       1.54940000       1.88650000
H        0.28260000      -0.52440000       3.84170000
H        2.80080000      -0.98350000       3.13240000
