17
Properties=species:S:1:pos:R:3 gdb_32884=T pbc="F F F"
N       -0.00660000       1.27390000       0.50140000
C       -0.06390000      -0.06140000       0.11790000
C       -0.95720000      -0.73340000      -0.65400000
O       -0.58620000      -2.06530000      -0.64650000
C        0.51230000      -2.11360000       0.12980000
C        1.16280000      -3.43770000       0.33360000
C        2.36460000      -3.35950000       1.26810000
O        2.88730000      -4.67540000       1.37090000
N        0.87180000      -0.96100000       0.61090000
H        0.93170000       1.54180000       0.76680000
H       -0.38780000       1.91610000      -0.17900000
H       -1.83170000      -0.47610000      -1.22290000
H        0.43340000      -4.14940000       0.73830000
H        1.48180000      -3.84810000      -0.63240000
H        3.10470000      -2.65630000       0.86100000
H        2.04860000      -2.96740000       2.24510000
H        3.64350000      -4.64970000       1.96380000
