20
Properties=species:S:1:pos:R:3 gdb_81956=T pbc="F F F"
C        0.03730000       1.62730000       0.08560000
C        0.10840000       0.10860000       0.00140000
C        0.82580000      -0.45210000      -1.24950000
O        1.88780000       0.37750000      -1.68210000
C        1.37780000      -1.82270000      -0.75120000
O        2.61790000      -2.15900000      -1.37580000
C        1.54270000      -1.64090000       0.74540000
C        2.20880000      -0.40210000       1.22810000
N        0.73970000      -0.49530000       1.20520000
H        1.03470000       2.06910000       0.04110000
H       -0.54570000       2.03240000      -0.74720000
H       -0.44180000       1.92600000       1.02210000
H       -0.91390000      -0.29310000      -0.01070000
H        0.10940000      -0.58920000      -2.07380000
H        2.61580000      -0.22920000      -1.88790000
H        0.63990000      -2.61340000      -0.93750000
H        2.42780000      -2.63090000      -2.19330000
H        1.53230000      -2.53210000       1.36620000
H        2.63740000      -0.39730000       2.22630000
H        2.70530000       0.23510000       0.50580000
