17
Properties=species:S:1:pos:R:3 gdb_127463=T pbc="F F F"
C       -0.23190000       1.41590000       0.04000000
N       -0.06360000      -0.01700000      -0.01730000
N       -0.07070000      -0.69060000      -1.21520000
C        0.09900000      -1.94000000      -0.83570000
C        0.13110000      -3.11440000      -1.76710000
O        1.09420000      -4.06780000      -1.36110000
N        0.24220000      -2.12640000       0.51200000
C        0.14360000      -0.89600000       0.98690000
N        0.16030000      -0.53590000       2.32210000
H        0.72740000       1.94320000      -0.02000000
H       -0.85300000       1.72090000      -0.80260000
H       -0.73470000       1.68310000       0.97330000
H       -0.87500000      -3.56520000      -1.81310000
H        0.38470000      -2.77760000      -2.77610000
H        1.06390000      -4.08000000      -0.39620000
H        0.42140000      -1.32020000       2.90410000
H        0.71670000       0.28030000       2.53820000
