21
Properties=species:S:1:pos:R:3 gdb_92132=T pbc="F F F"
C        0.26450000       1.57730000       0.02760000
C       -0.02630000       0.07140000       0.00360000
C        0.50660000      -0.59760000      -1.29930000
C        1.28770000      -1.87310000      -0.96890000
C        0.44920000      -2.81380000      -0.07600000
C        0.61800000      -2.14500000       1.27930000
C        1.88090000      -1.33370000       1.14080000
O        2.41170000      -1.50380000      -0.15270000
C        0.55430000      -0.62260000       1.23390000
H        1.34430000       1.76190000       0.01860000
H       -0.16990000       2.07590000      -0.84550000
H       -0.15140000       2.04920000       0.92460000
H       -1.11590000      -0.05740000       0.04210000
H       -0.31530000      -0.82490000      -1.98730000
H        1.18550000       0.08380000      -1.82260000
H        1.68180000      -2.35060000      -1.86870000
H       -0.58800000      -2.87750000      -0.42020000
H        0.86880000      -3.82480000      -0.05750000
H        0.36250000      -2.67790000       2.18720000
H        2.64970000      -1.24520000       1.89830000
H        0.34360000      -0.13350000       2.18150000
