17
Properties=species:S:1:pos:R:3 gdb_71324=T pbc="F F F"
C       -0.04930000       1.51130000      -0.10440000
C        0.01890000       0.01530000       0.07620000
C       -1.26930000      -0.78350000       0.44630000
N       -0.43890000      -1.75180000       1.25770000
C        0.73020000      -0.79500000       1.20420000
C        1.40140000      -1.67040000       0.11650000
N        0.89720000      -0.69190000      -0.89750000
C        0.25210000      -2.65920000       0.36330000
O       -0.10600000      -3.70390000      -0.09390000
H        0.95450000       1.93890000      -0.16920000
H       -0.58050000       1.76220000      -1.03020000
H       -0.58320000       1.98330000       0.72660000
H       -1.94870000      -0.22370000       1.09750000
H       -1.84290000      -1.25380000      -0.35870000
H        1.16620000      -0.42940000       2.12930000
H        2.44420000      -1.97010000       0.00570000
H        0.44590000      -1.09840000      -1.71530000
