23
Properties=species:S:1:pos:R:3 gdb_71244=T pbc="F F F"
C       -0.09250000       1.50830000       0.09140000
C        0.00810000       0.00170000       0.04580000
C        0.89620000      -0.74010000      -0.99630000
C        0.83890000      -1.88920000       0.01630000
C       -0.67400000      -2.14330000       0.43430000
C       -0.28900000      -1.75590000       1.88470000
C        0.75000000      -0.85640000       1.19300000
C        1.93210000      -0.25130000       1.90690000
C       -1.29480000      -0.82460000      -0.06710000
H        0.89180000       1.97870000       0.19050000
H       -0.55280000       1.89690000      -0.82500000
H       -0.70870000       1.84190000       0.93460000
H        0.49050000      -0.87760000      -2.00460000
H        1.90520000      -0.32210000      -1.06620000
H        1.52070000      -2.73980000       0.02190000
H       -1.18700000      -3.07740000       0.20680000
H       -1.06350000      -1.31380000       2.52230000
H        0.20830000      -2.56930000       2.42390000
H        2.46730000      -1.00700000       2.49280000
H        2.64940000       0.19530000       1.20930000
H        1.61480000       0.53860000       2.59870000
H       -2.10140000      -0.47160000       0.58390000
H       -1.67190000      -0.86070000      -1.09420000
