13
Properties=species:S:1:pos:R:3 gdb_3696=T pbc="F F F"
C        0.00750000       1.45160000      -0.00320000
C       -0.01270000      -0.03950000       0.01510000
N       -0.10610000      -0.75850000      -1.08760000
N       -0.08470000      -2.03980000      -0.59550000
C        0.01960000      -2.01370000       0.75050000
N       -0.00300000      -3.14240000       1.54750000
N        0.07340000      -0.76640000       1.17630000
H        0.93210000       1.83270000       0.44210000
H       -0.06940000       1.81520000      -1.02920000
H       -0.82430000       1.85610000       0.58240000
H       -0.20430000      -2.81990000      -1.21810000
H        0.52510000      -3.92810000       1.19350000
H        0.25790000      -2.91960000       2.49840000
