20
Properties=species:S:1:pos:R:3 gdb_62599=T pbc="F F F"
C       -0.12220000       1.50940000       0.00270000
C       -0.02700000      -0.01860000      -0.00170000
C       -1.39180000      -0.66520000       0.20610000
C        0.86970000      -0.54310000      -1.16690000
C        1.11730000      -2.03500000      -0.86780000
C        2.45730000      -1.81970000      -0.27780000
C        2.16890000      -0.29820000      -0.29390000
C        1.15330000      -0.52140000       0.86710000
N        1.28950000      -2.02300000       0.63160000
H        0.85160000       1.98640000      -0.14660000
H       -0.78760000       1.85740000      -0.79530000
H       -0.52910000       1.87210000       0.95320000
H       -2.07720000      -0.40300000      -0.60850000
H       -1.31500000      -1.75410000       0.25360000
H       -1.84820000      -0.32100000       1.14140000
H        0.75660000      -0.21500000      -2.19960000
H        0.67390000      -2.91680000      -1.31250000
H        3.35290000      -2.42790000      -0.24270000
H        2.85850000       0.53080000      -0.41970000
H        1.29340000      -0.23870000       1.91070000
