19
Properties=species:S:1:pos:R:3 gdb_127433=T pbc="F F F"
C       -0.46580000       1.18520000       0.27280000
N       -0.14550000      -0.22620000       0.19630000
N       -0.25540000      -0.87430000      -0.98240000
C        0.14700000      -2.12280000      -0.74290000
C        0.15130000      -3.14300000      -1.83790000
C        0.51860000      -2.27520000       0.61150000
C        0.32340000      -1.03360000       1.18770000
C        0.52830000      -0.57180000       2.59560000
O       -0.66520000      -0.09260000       3.21530000
H        0.41720000       1.80540000       0.07960000
H       -1.21830000       1.40220000      -0.48580000
H       -0.85940000       1.40850000       1.26530000
H        1.15730000      -3.54080000      -2.01190000
H       -0.49580000      -3.99410000      -1.59800000
H       -0.20490000      -2.69180000      -2.76640000
H        0.87700000      -3.16410000       1.10740000
H        0.97530000      -1.39590000       3.16830000
H        1.22790000       0.27030000       2.64210000
H       -1.33010000      -0.78450000       3.12760000
