16
Properties=species:S:1:pos:R:3 gdb_55595=T pbc="F F F"
N        1.22090000      -0.35300000      -0.40490000
C        0.03450000       0.08100000       0.10070000
N       -0.11510000       1.25020000       0.59200000
N       -1.03450000      -0.85780000      -0.00910000
C       -0.99060000      -2.18110000      -0.36500000
O        0.02660000      -2.79070000      -0.65310000
C       -2.33840000      -2.89180000      -0.35830000
C       -2.28380000      -4.14860000       0.50570000
O       -3.17590000      -4.48790000       1.23470000
H        2.01370000       0.22280000      -0.17670000
H        1.34200000      -1.34550000      -0.54720000
H       -1.07100000       1.42770000       0.88880000
H       -1.93350000      -0.48420000       0.25030000
H       -3.18120000      -2.27340000      -0.04190000
H       -2.51740000      -3.22390000      -1.38950000
H       -1.34690000      -4.73050000       0.39490000
