20
Properties=species:S:1:pos:R:3 gdb_119496=T pbc="F F F"
C        0.01240000       1.51020000       0.09520000
C       -0.15370000       0.00260000       0.15380000
O        0.84560000      -0.52140000       1.02810000
C        0.81330000      -1.88830000       1.14340000
C       -0.16750000      -2.64160000       2.00220000
C        1.32530000      -2.75120000       2.25420000
N        2.14550000      -3.61500000       1.30870000
C        1.28180000      -4.25070000       0.29180000
C        1.58630000      -2.81030000       0.16640000
H        1.00250000       1.77380000      -0.28720000
H       -0.74300000       1.95070000      -0.56220000
H       -0.09650000       1.94700000       1.09200000
H       -1.15100000      -0.27210000       0.52850000
H       -0.04630000      -0.44100000      -0.84770000
H       -0.64080000      -1.99950000       2.73990000
H       -0.80050000      -3.45330000       1.66030000
H        1.77470000      -2.50850000       3.20800000
H        1.84540000      -4.92890000      -0.34380000
H        0.29120000      -4.61090000       0.54410000
H        2.24960000      -2.40010000      -0.58910000
