19
Properties=species:S:1:pos:R:3 gdb_90395=T pbc="F F F"
C       -0.39090000       1.39770000       0.03600000
N        0.09180000       0.02680000      -0.00820000
C        1.12690000      -0.40130000      -0.98440000
C        1.86780000      -1.11780000       0.14740000
C        2.29450000      -0.10720000       1.20270000
C        2.79070000       1.19750000       0.86700000
N        3.20070000       2.24510000       0.59190000
C        0.82420000      -0.56380000       1.09640000
C        0.10320000      -1.14360000       2.27770000
H        0.39930000       2.15560000       0.12800000
H       -0.96180000       1.60290000      -0.87550000
H       -1.07590000       1.50590000       0.88330000
H        0.72130000      -1.06900000      -1.75110000
H        1.68390000       0.41070000      -1.46850000
H        2.31340000      -2.10280000       0.10250000
H        2.81020000      -0.55690000       2.04650000
H       -0.33580000      -0.35270000       2.89640000
H       -0.70530000      -1.79850000       1.93970000
H        0.78280000      -1.72080000       2.91120000
