18
Properties=species:S:1:pos:R:3 gdb_34743=T pbc="F F F"
C       -0.22170000      -1.26850000      -0.32570000
C       -0.09890000      -0.08570000      -0.14270000
C        0.02210000       1.34750000       0.05840000
C       -0.26270000       1.99690000       1.45000000
C        0.11400000       1.04470000       2.59020000
C        1.60600000       0.71310000       2.31170000
C        2.05190000       1.80860000       1.35030000
C        1.00940000       2.83560000       1.17570000
N        1.40640000       1.96310000       0.00810000
H       -0.32240000      -2.31280000      -0.49130000
H       -0.55240000       1.86170000      -0.71880000
H       -1.22440000       2.49770000       1.55740000
H        0.00080000       1.55530000       3.55270000
H       -0.51900000       0.15310000       2.60400000
H        2.21100000       0.74870000       3.22300000
H        1.73130000      -0.28110000       1.87610000
H        3.10110000       2.07990000       1.30070000
H        1.12650000       3.91250000       1.16990000
