12
Properties=species:S:1:pos:R:3 gdb_3771=T pbc="F F F"
C        0.05690000       1.40970000      -0.00170000
N        0.00540000      -0.03180000       0.02820000
N       -0.14130000      -0.78020000      -1.09650000
N       -0.15380000      -2.00530000      -0.77550000
N       -0.01360000      -2.07650000       0.58250000
C        0.09510000      -0.82190000       1.16310000
N        0.23710000      -0.38000000       2.35270000
H        1.00690000       1.76220000       0.40990000
H       -0.04180000       1.72440000      -1.04040000
H       -0.75610000       1.82890000       0.59770000
H        0.00010000      -2.97350000       1.03430000
H        0.28040000      -1.13230000       3.03430000
