16
Properties=species:S:1:pos:R:3 gdb_9123=T pbc="F F F"
C       -0.02540000       1.57600000       0.01080000
C       -0.05700000       0.03710000       0.00300000
C       -1.40360000      -0.51730000       0.01260000
C       -2.52180000      -0.97350000       0.02050000
C       -3.85960000      -1.53460000       0.02990000
O       -4.07400000      -2.72370000       0.02480000
C       -4.96540000      -0.48400000       0.04680000
O       -6.21600000      -1.11560000       0.05500000
H        1.00850000       1.93230000       0.00310000
H       -0.53580000       1.98030000      -0.86730000
H       -0.51950000       1.97100000       0.90240000
H        0.47370000      -0.34380000      -0.87900000
H        0.48980000      -0.35300000       0.87110000
H       -4.79550000       0.15280000       0.93260000
H       -4.81240000       0.16350000      -0.83420000
H       -6.89390000      -0.43390000       0.06560000
