13
Properties=species:S:1:pos:R:3 gdb_14570=T pbc="F F F"
C        0.02170000      -1.22090000      -0.00490000
C       -0.02220000      -0.02030000       0.00210000
C       -0.03370000       1.43550000       0.01000000
C        1.40660000       2.01970000      -0.00050000
C        1.41600000       3.47170000       0.00720000
C        1.39690000       4.67980000       0.01390000
C        1.38390000       6.04490000       0.02160000
N        1.37170000       7.20650000       0.02820000
H        0.04070000      -2.28280000      -0.01070000
H       -0.58010000       1.81480000      -0.86070000
H       -0.56340000       1.80540000       0.89490000
H        1.95590000       1.64410000       0.87050000
H        1.93930000       1.65350000      -0.88570000
