21
Properties=species:S:1:pos:R:3 gdb_117273=T pbc="F F F"
C       -0.15930000       1.67870000       0.05190000
C       -0.00900000       0.16890000      -0.14850000
C       -1.31460000      -0.59060000       0.08700000
C       -1.18530000      -2.10110000      -0.06790000
O       -0.12400000      -2.65020000      -0.22350000
C       -2.51920000      -2.87150000      -0.01510000
C       -2.38980000      -4.31790000       0.00600000
C       -2.27560000      -5.51520000       0.02540000
C       -2.12760000      -6.96280000       0.04780000
H        0.78890000       2.19570000      -0.12370000
H       -0.90050000       2.10260000      -0.63520000
H       -0.48280000       1.91610000       1.07180000
H        0.34880000      -0.04290000      -1.16220000
H        0.75750000      -0.22960000       0.52370000
H       -1.69840000      -0.39600000       1.09990000
H       -2.10730000      -0.23590000      -0.58710000
H       -3.08460000      -2.51120000       0.85580000
H       -3.10720000      -2.54460000      -0.88590000
H       -2.65090000      -7.43100000      -0.79330000
H       -1.07260000      -7.25080000      -0.01640000
H       -2.53300000      -7.39200000       0.97070000
