23
Properties=species:S:1:pos:R:3 gdb_88194=T pbc="F F F"
C       -0.11680000       1.49790000      -0.13420000
C        0.02650000       0.00320000       0.04820000
C        1.35630000      -0.70330000      -0.16140000
C        0.72620000      -0.62270000       1.21500000
C        1.37820000       0.17200000       2.33000000
C        2.35840000      -0.72100000       3.11010000
C        1.66470000      -2.02260000       3.53520000
C        1.00300000      -2.68110000       2.32390000
O        0.09650000      -1.79350000       1.67960000
H        0.78430000       2.03680000       0.17370000
H       -0.29720000       1.74140000      -1.18690000
H       -0.95670000       1.89420000       0.44740000
H       -0.83570000      -0.57420000      -0.27500000
H        1.34570000      -1.66390000      -0.66410000
H        2.23050000      -0.09170000      -0.36570000
H        1.89420000       1.04920000       1.92970000
H        0.59510000       0.53620000       3.00840000
H        3.21620000      -0.96060000       2.46780000
H        2.75270000      -0.18720000       3.98120000
H        2.37770000      -2.71850000       3.99220000
H        0.89330000      -1.80580000       4.28470000
H        1.77440000      -3.01300000       1.60910000
H        0.41280000      -3.55510000       2.61450000
