17
Properties=species:S:1:pos:R:3 gdb_36078=T pbc="F F F"
N       -0.06930000      -1.11850000      -0.48990000
C       -0.05970000       0.01280000      -0.25580000
C       -0.02160000       1.44420000       0.05900000
C        1.37840000       1.97090000       0.16230000
C        1.96400000       3.32960000       0.08860000
C        2.87760000       3.06940000       1.28440000
C        2.68510000       1.56210000       0.96210000
C        3.32790000       1.44110000      -0.42820000
N        2.24300000       2.31220000      -0.99620000
H       -0.54980000       1.99470000      -0.72780000
H       -0.57000000       1.60770000       0.99470000
H        1.51270000       4.25620000      -0.24150000
H        3.89990000       3.46110000       1.26660000
H        2.38560000       3.35810000       2.21660000
H        2.78740000       0.80100000       1.73260000
H        4.34870000       1.81720000      -0.56040000
H        3.23270000       0.44790000      -0.87200000
