19
Properties=species:S:1:pos:R:3 gdb_58662=T pbc="F F F"
C        0.07080000       1.46950000      -0.18190000
C       -0.01500000      -0.01890000       0.15280000
O        0.58820000      -0.31940000       1.40500000
C       -1.44390000      -0.56410000       0.10340000
C       -1.99650000      -1.15820000      -1.18930000
C       -1.64820000      -2.09030000      -0.07830000
N       -0.55920000      -3.01030000      -0.19130000
C       -2.35750000       0.10000000       0.99140000
N       -3.05780000       0.63980000       1.74030000
H        1.11080000       1.80130000      -0.12830000
H       -0.31130000       1.66910000      -1.18790000
H       -0.52020000       2.06270000       0.52440000
H        0.57450000      -0.58400000      -0.57590000
H        0.12850000       0.18710000       2.08550000
H       -3.03940000      -0.98680000      -1.42710000
H       -1.33130000      -1.12010000      -2.04750000
H       -2.48610000      -2.48460000       0.48980000
H        0.03860000      -2.80260000      -0.98170000
H        0.01630000      -2.99730000       0.64520000
