16
Properties=species:S:1:pos:R:3 gdb_61788=T pbc="F F F"
C       -0.04190000       1.70610000       0.06650000
C       -0.04640000       0.19050000      -0.05840000
O        0.63700000      -0.18290000      -1.25810000
C       -0.00740000      -0.94990000      -2.17130000
O        0.49650000      -1.27300000      -3.20030000
C        0.69500000      -0.48840000       1.12230000
O        0.19160000      -0.08450000       2.37820000
C        0.65450000      -1.95540000       0.97370000
N        0.55540000      -3.10240000       0.87480000
H        0.98260000       2.08650000       0.01880000
H       -0.61290000       2.15210000      -0.75150000
H       -0.48310000       2.00750000       1.01830000
H       -1.07730000      -0.19100000      -0.08770000
H       -1.03160000      -1.22300000      -1.85380000
H        1.74070000      -0.16430000       1.09120000
H       -0.65390000      -0.52270000       2.53070000
