17
Properties=species:S:1:pos:R:3 gdb_128604=T pbc="F F F"
C        0.04630000       1.38240000       0.00660000
O        0.04360000      -0.03050000       0.00280000
C       -1.18520000      -0.60020000       0.01070000
C       -2.44850000      -0.04460000       0.02130000
N       -3.31930000      -1.09200000       0.02530000
N       -2.70260000      -2.29640000       0.01800000
C       -1.41150000      -2.00370000       0.00910000
O       -0.43010000      -2.92120000      -0.00030000
C       -0.86120000      -4.27750000      -0.00040000
H        1.09140000       1.69600000      -0.00020000
H       -0.46010000       1.78520000      -0.88220000
H       -0.44690000       1.78030000       0.90500000
H       -2.78390000       0.97860000       0.02620000
H       -4.32180000      -1.05960000       0.03290000
H       -1.45560000      -4.50160000       0.89210000
H       -1.46920000      -4.49720000      -0.88470000
H        0.04760000      -4.88100000      -0.00880000
