19
Properties=species:S:1:pos:R:3 gdb_122865=T pbc="F F F"
C        0.04840000       1.29910000       0.06710000
O        0.02360000      -0.10670000      -0.01480000
C       -1.26800000      -0.64180000       0.13270000
C       -1.18220000      -2.14980000       0.08170000
O       -0.53670000      -2.59980000       1.28980000
C       -0.31430000      -3.91180000       1.38350000
O       -0.62560000      -4.73030000       0.54890000
C        0.38900000      -4.29020000       2.67480000
O        0.57920000      -5.67440000       2.74640000
H        1.08680000       1.61400000      -0.05760000
H       -0.56230000       1.76560000      -0.72230000
H       -0.31830000       1.65750000       1.04170000
H       -1.72220000      -0.32550000       1.08650000
H       -1.93390000      -0.30170000      -0.67940000
H       -2.17980000      -2.59490000       0.01790000
H       -0.59930000      -2.47750000      -0.78300000
H        1.34540000      -3.74710000       2.71420000
H       -0.21540000      -3.92470000       3.51820000
H        0.22500000      -6.02780000       1.91660000
