20
Properties=species:S:1:pos:R:3 gdb_16699=T pbc="F F F"
C       -0.12580000       1.58710000      -0.02070000
C        0.01110000       0.06980000      -0.02000000
C        1.14370000      -0.59560000      -0.85190000
C        2.11990000      -0.25440000       0.29840000
C        0.84470000      -0.59210000       1.13690000
C        0.70600000      -2.08380000       0.77810000
C       -0.59490000      -2.78760000       1.12910000
O        0.89030000      -1.99870000      -0.66410000
H        0.81680000       2.11040000       0.15910000
H       -0.51880000       1.93640000      -0.98190000
H       -0.83040000       1.90650000       0.75520000
H       -0.96850000      -0.38000000      -0.20520000
H        1.33270000      -0.39350000      -1.90600000
H        2.99150000      -0.90400000       0.41130000
H        2.41710000       0.79190000       0.34540000
H        0.73210000      -0.31150000       2.18460000
H        1.54220000      -2.65880000       1.20080000
H       -1.47230000      -2.21960000       0.80920000
H       -0.63080000      -3.76610000       0.64100000
H       -0.65890000      -2.94570000       2.21130000
