14
Properties=species:S:1:pos:R:3 gdb_4600=T pbc="F F F"
C       -0.01820000       1.52660000       0.00580000
C        0.00040000       0.02510000      -0.01820000
C       -0.05130000      -0.70690000      -1.14940000
O       -0.03460000      -2.04330000      -1.16780000
C        0.04030000      -2.76490000       0.03290000
N        0.04970000      -4.02270000      -0.09830000
N        0.09540000      -2.05420000       1.22710000
C        0.07610000      -0.76300000       1.18770000
H        0.88470000       1.93160000       0.47680000
H       -0.07750000       1.93550000      -1.00650000
H       -0.87650000       1.90830000       0.57050000
H       -0.11110000      -0.29300000      -2.15110000
H        0.10540000      -4.43590000       0.83120000
H        0.12130000      -0.24510000       2.14790000
