13
Properties=species:S:1:pos:R:3 gdb_27724=T pbc="F F F"
O        0.03690000       1.32850000       0.22490000
C        0.05800000      -0.00060000       0.01130000
C        0.09610000      -0.75450000      -1.14940000
C        0.10180000      -2.10610000      -0.73380000
O        0.13560000      -3.15070000      -1.58490000
C        0.06750000      -2.14640000       0.65650000
N        0.04070000      -0.81230000       1.09050000
C        0.05960000      -3.25770000       1.50440000
N        0.05430000      -4.21210000       2.16980000
H        0.05250000       1.78170000      -0.62410000
H        0.11710000      -0.39160000      -2.16380000
H        0.13270000      -3.97240000      -1.07850000
H        0.01310000      -0.50350000       2.04670000
