18
Properties=species:S:1:pos:R:3 gdb_53353=T pbc="F F F"
C        0.14450000       1.59660000      -0.20020000
C        0.10020000       0.15010000      -0.04960000
C        0.06410000      -1.04610000       0.08330000
C        0.03580000      -2.49230000       0.21510000
O        0.34680000      -2.87570000       1.59280000
C       -0.66830000      -3.68030000       1.98280000
N       -1.61950000      -3.94400000       1.19210000
C       -1.34610000      -3.20810000      -0.05670000
C       -2.51330000      -2.29230000      -0.41430000
H        0.91100000       1.89860000      -0.92210000
H       -0.81670000       1.99140000      -0.54660000
H        0.37800000       2.08090000       0.75420000
H        0.82120000      -2.93310000      -0.40770000
H       -0.57310000      -4.05050000       2.99810000
H       -1.21230000      -3.93930000      -0.86150000
H       -2.67650000      -1.54500000       0.36660000
H       -2.32660000      -1.76910000      -1.35620000
H       -3.42250000      -2.89010000      -0.51710000
