22
Properties=species:S:1:pos:R:3 gdb_59735=T pbc="F F F"
C       -0.14040000       1.51800000       0.01200000
C        0.07080000       0.00170000      -0.11810000
C        0.97750000      -0.30400000      -1.31950000
C        0.63150000      -0.59880000       1.18730000
C       -0.08170000      -0.18500000       2.48970000
C        0.28920000      -1.32730000       3.43450000
O        0.39080000      -2.48760000       2.59300000
C        0.57950000      -2.11890000       1.28980000
N        0.68340000      -2.94880000       0.34230000
H        0.80400000       2.02880000       0.23710000
H       -0.51870000       1.92980000      -0.92890000
H       -0.85690000       1.77650000       0.79750000
H       -0.90610000      -0.46770000      -0.29720000
H        1.95860000       0.17090000      -1.19060000
H        1.12500000      -1.37800000      -1.43500000
H        0.53820000       0.09560000      -2.23960000
H        1.69170000      -0.31210000       1.26960000
H        0.22840000       0.79010000       2.86900000
H       -1.16630000      -0.16220000       2.33370000
H        1.25680000      -1.15580000       3.92400000
H       -0.45830000      -1.53580000       4.20350000
H        0.61190000      -3.90380000       0.69780000
