13
Properties=species:S:1:pos:R:3 gdb_2505=T pbc="F F F"
C       -0.04910000       1.55010000       0.04010000
C       -0.00710000       0.02300000       0.00640000
C        0.74760000      -0.52590000      -1.24040000
C        2.15150000      -0.08920000      -1.26050000
N        3.24220000       0.28920000      -1.26090000
C        0.66050000      -1.99100000      -1.30900000
N        0.55100000      -3.13950000      -1.34780000
H        0.95730000       1.97700000       0.07630000
H       -0.55910000       1.95460000      -0.84060000
H       -0.59160000       1.89030000       0.92590000
H        0.47730000      -0.37420000       0.90300000
H       -1.01840000      -0.39310000      -0.02490000
H        0.26770000      -0.12430000      -2.14310000
