19
Properties=species:S:1:pos:R:3 gdb_60827=T pbc="F F F"
O        0.10960000       1.47340000      -0.02220000
C        0.10040000       0.07030000       0.09370000
C        0.68610000      -0.54640000      -1.16090000
O        1.00050000       0.12960000      -2.11000000
C        0.91800000      -0.33850000       1.33780000
O        2.23110000       0.17910000       1.20380000
C        0.23840000       0.10520000       2.61540000
C       -0.74570000      -0.81080000       3.30160000
C        0.60620000      -0.54960000       3.91770000
H        0.37680000       1.65270000      -0.93920000
H       -0.92890000      -0.31560000       0.20080000
H        0.79810000      -1.64920000      -1.16360000
H        1.02050000      -1.43200000       1.35000000
H        2.11750000       1.11070000       0.97200000
H        0.01480000       1.16780000       2.64370000
H       -1.62240000      -0.37010000       3.76240000
H       -0.92170000      -1.78990000       2.86600000
H        1.34110000      -1.34740000       3.88990000
H        0.65840000       0.06920000       4.80630000
