27
Properties=species:S:1:pos:R:3 gdb_118089=T pbc="F F F"
C        0.07250000       1.51170000      -0.33490000
C        0.04670000       0.00820000      -0.04400000
C       -1.37680000      -0.56020000       0.01980000
C       -1.45540000      -2.08560000       0.23140000
C       -0.93750000      -2.51380000       1.61420000
C       -2.86470000      -2.62490000      -0.03730000
C       -3.97950000      -2.11680000       0.86140000
C       -3.22320000      -2.91530000      -1.47570000
C       -2.96620000      -4.05430000      -0.51540000
H        1.09740000       1.89370000      -0.37960000
H       -0.41010000       1.73820000      -1.29220000
H       -0.45820000       2.07410000       0.44170000
H        0.61340000      -0.52410000      -0.82010000
H        0.57080000      -0.18400000       0.89980000
H       -1.92850000      -0.04900000       0.82060000
H       -1.89690000      -0.31110000      -0.91490000
H       -0.80050000      -2.54970000      -0.52080000
H       -1.48550000      -2.01420000       2.42080000
H       -1.04810000      -3.59390000       1.75380000
H        0.12130000      -2.26980000       1.73930000
H       -4.10390000      -1.03160000       0.77970000
H       -4.93450000      -2.57650000       0.58810000
H       -3.79270000      -2.35320000       1.91460000
H       -4.24410000      -2.73900000      -1.79870000
H       -2.47930000      -2.72020000      -2.24180000
H       -2.04840000      -4.62110000      -0.63550000
H       -3.81250000      -4.64990000      -0.18880000
