17
Properties=species:S:1:pos:R:3 gdb_11340=T pbc="F F F"
C       -0.22780000       1.52480000      -0.05590000
C        0.10080000       0.02160000       0.00850000
C        0.80610000      -0.49060000      -1.20930000
C        2.04770000      -0.97670000      -1.31630000
C        2.33530000      -1.37310000      -2.72460000
O        3.35670000      -1.82240000      -3.20040000
N        1.16030000      -1.11700000      -3.40490000
C        0.14060000      -0.52880000      -2.57200000
H        0.68300000       2.11830000      -0.17960000
H       -0.89610000       1.75660000      -0.89100000
H       -0.72290000       1.84780000       0.86440000
H        0.72030000      -0.18020000       0.88830000
H       -0.83330000      -0.53980000       0.14810000
H        2.78020000      -1.09090000      -0.52920000
H        1.09590000      -1.21570000      -4.40330000
H       -0.77970000      -1.13170000      -2.54440000
H       -0.14540000       0.47820000      -2.90940000
