21
Properties=species:S:1:pos:R:3 gdb_69376=T pbc="F F F"
C        0.00590000       1.54630000      -0.14840000
C       -0.05680000       0.05150000      -0.04750000
C       -0.89190000      -0.67000000       0.93270000
N        0.57590000      -0.72900000       1.10260000
C        1.04610000      -1.75420000       0.09580000
C        0.48730000      -0.92190000      -1.09390000
C        2.53810000      -1.91870000       0.13530000
C        3.15110000      -3.01430000       0.92140000
N        3.16990000      -3.05820000      -0.55340000
H        0.99440000       1.87960000      -0.48250000
H       -0.73470000       1.91860000      -0.86630000
H       -0.19910000       2.01000000       0.82090000
H       -1.38170000      -0.08280000       1.70420000
H       -1.42650000      -1.57550000       0.64890000
H        0.56760000      -2.73180000       0.24680000
H       -0.24240000      -1.39300000      -1.75930000
H        1.28790000      -0.49140000      -1.70090000
H        3.09290000      -0.98790000       0.03230000
H        4.12220000      -2.87270000       1.38650000
H        2.48670000      -3.68800000       1.45680000
H        2.45040000      -3.69900000      -0.88320000
