21
Properties=species:S:1:pos:R:3 gdb_53727=T pbc="F F F"
C        0.07600000       1.34190000       0.44940000
C       -0.06700000       0.14750000      -0.47390000
O        0.77520000      -0.15140000      -1.29460000
C       -1.28560000      -0.62220000      -0.31250000
C       -2.30070000      -1.26390000      -0.17820000
C       -3.52480000      -2.05770000      -0.03470000
C       -3.13750000      -3.52660000       0.25640000
C       -4.37590000      -1.49880000       1.12760000
C       -4.32560000      -1.98190000      -1.35590000
H        1.02080000       1.84930000       0.24850000
H       -0.76060000       2.03340000       0.30180000
H        0.03940000       1.01580000       1.49450000
H       -2.56330000      -3.60470000       1.18370000
H       -4.04280000      -4.13380000       0.35970000
H       -2.53320000      -3.94020000      -0.55520000
H       -4.65750000      -0.45840000       0.94230000
H       -5.29170000      -2.08880000       1.23740000
H       -3.82540000      -1.54010000       2.07170000
H       -3.73900000      -2.37130000      -2.19220000
H       -5.24090000      -2.57640000      -1.26730000
H       -4.60620000      -0.95050000      -1.58640000
