22
Properties=species:S:1:pos:R:3 gdb_61170=T pbc="F F F"
C       -0.03150000       1.64720000       0.05290000
C       -0.03860000       0.11660000      -0.04870000
C       -1.48470000      -0.43790000       0.01340000
C       -2.09960000      -0.24250000       1.32280000
N       -2.56680000      -0.08040000       2.36780000
C        0.71560000      -0.46520000      -1.28340000
C        0.06570000      -0.09780000      -2.62100000
C        2.18980000      -0.03610000      -1.27280000
O        0.64600000      -1.89840000      -1.22670000
H        0.98390000       2.04480000       0.11820000
H       -0.52230000       2.10940000      -0.81020000
H       -0.56910000       1.96870000       0.94990000
H        0.48850000      -0.27970000       0.83080000
H       -2.11690000       0.04920000      -0.73750000
H       -1.46830000      -1.50680000      -0.21820000
H        0.03670000       0.98460000      -2.76810000
H        0.64180000      -0.53970000      -3.43810000
H       -0.95280000      -0.48830000      -2.68830000
H        2.65850000      -0.26120000      -0.30690000
H        2.73030000      -0.58200000      -2.05090000
H        2.30980000       1.03400000      -1.46000000
H        1.18050000      -2.19270000      -0.48050000
