21
Properties=species:S:1:pos:R:3 gdb_102117=T pbc="F F F"
C       -0.12490000       1.56240000      -0.06500000
C        0.00220000       0.03660000      -0.01370000
C        0.75330000      -0.47290000       1.22680000
C       -0.00540000      -0.14210000       2.50460000
O        0.51440000       0.05580000       3.57430000
C        0.98110000      -1.99100000       1.15950000
C        1.67380000      -2.70830000       2.33870000
C        0.38590000      -3.55390000       2.39350000
O       -0.24090000      -2.74280000       1.37160000
H        0.86090000       2.04020000      -0.07690000
H       -0.66320000       1.88260000      -0.96190000
H       -0.66800000       1.95420000       0.80220000
H       -0.99160000      -0.42790000      -0.03620000
H        0.52400000      -0.31900000      -0.90980000
H        1.74200000      -0.00100000       1.30080000
H       -1.11250000      -0.11940000       2.39580000
H        1.41900000      -2.23470000       0.18040000
H        2.59410000      -3.24010000       2.09440000
H        1.83420000      -2.07250000       3.20970000
H        0.49680000      -4.59570000       2.06830000
H       -0.17730000      -3.53000000       3.33260000
