22
Properties=species:S:1:pos:R:3 gdb_9774=T pbc="F F F"
C       -0.17780000       1.26340000      -0.06040000
O       -0.05470000      -0.12330000       0.15420000
C        0.78670000      -0.56150000       1.23900000
C        2.20000000       0.01140000       1.12040000
C        0.10230000      -0.27170000       2.59410000
C       -1.00170000      -1.33310000       2.67780000
C       -0.30130000      -2.60810000       2.16700000
C        0.74840000      -2.11130000       1.13690000
H        0.75720000       1.72270000      -0.41070000
H       -0.93360000       1.39000000      -0.84060000
H       -0.51440000       1.81030000       0.83220000
H        2.22150000       1.09530000       1.26920000
H        2.85080000      -0.43650000       1.87710000
H        2.62110000      -0.20740000       0.13370000
H        0.83170000      -0.42000000       3.40090000
H       -0.26150000       0.75610000       2.67820000
H       -1.41810000      -1.44670000       3.68260000
H       -1.82080000      -1.05660000       2.00630000
H        0.19910000      -3.11350000       3.00060000
H       -1.00200000      -3.32850000       1.73690000
H        0.48230000      -2.37550000       0.11130000
H        1.73560000      -2.53630000       1.33820000
