16
Properties=species:S:1:pos:R:3 gdb_71520=T pbc="F F F"
C       -0.00580000       1.49100000      -0.02650000
C        0.06230000      -0.00440000      -0.09530000
C        0.62740000      -0.94680000      -1.18490000
C        0.08830000      -1.93830000      -0.13430000
C        0.46550000      -0.99920000       1.05010000
O       -0.86290000      -1.02450000       1.66330000
C       -1.11610000      -1.00830000       0.23180000
C       -2.46220000      -1.01530000      -0.27240000
N       -3.52950000      -1.00730000      -0.71700000
H        0.99750000       1.92820000      -0.05930000
H       -0.57880000       1.89850000      -0.86550000
H       -0.48830000       1.80310000       0.90510000
H        0.11910000      -0.93480000      -2.15230000
H        1.71180000      -0.92990000      -1.32140000
H        0.07040000      -3.02670000      -0.12700000
H        1.33820000      -1.00480000       1.69980000
