15
Properties=species:S:1:pos:R:3 gdb_34152=T pbc="F F F"
N       -0.03210000      -1.12630000       0.07710000
C       -0.02780000       0.03020000       0.06890000
C       -0.02790000       1.46780000       0.02120000
N       -0.63290000       2.34290000       1.08690000
C       -0.08310000       3.30880000       0.06730000
C        1.20480000       2.43500000      -0.05250000
C        1.64580000       2.48040000      -1.50490000
O        0.36980000       2.46710000      -2.18800000
C       -0.53820000       2.41950000      -1.13060000
H       -1.65510000       2.30640000       1.01470000
H       -0.14970000       4.38840000       0.18770000
H        1.93310000       2.42340000       0.75500000
H        2.19450000       3.39330000      -1.76130000
H        2.23520000       1.60980000      -1.81180000
H       -1.57320000       2.38140000      -1.46870000
