18
Properties=species:S:1:pos:R:3 gdb_51866=T pbc="F F F"
O       -0.06150000       0.25470000      -0.96930000
C       -0.02680000       1.25990000      -0.29300000
N        1.07060000       1.72970000       0.36210000
C        2.37120000       1.07260000       0.31990000
C        3.34970000       1.84750000      -0.58190000
O        4.66140000       1.33800000      -0.46190000
C        5.20800000       1.52370000       0.82960000
C        4.25010000       1.17550000       1.93450000
C        2.96020000       0.94490000       1.70240000
H       -0.90860000       1.91140000      -0.13160000
H        0.98350000       2.58660000       0.88700000
H        2.18140000       0.08600000      -0.11580000
H        3.06600000       1.74940000      -1.63260000
H        3.31690000       2.91800000      -0.31440000
H        6.09660000       0.88350000       0.87900000
H        5.55990000       2.56480000       0.95540000
H        4.66230000       1.11320000       2.93810000
H        2.28120000       0.66630000       2.50380000
