13
Properties=species:S:1:pos:R:3 gdb_131402=T pbc="F F F"
O        0.24640000       1.33790000       0.05460000
C        0.08760000       0.00600000       0.05250000
N        0.10570000      -0.75240000      -1.03420000
N       -0.08360000      -1.98260000      -0.55040000
N       -0.23990000      -2.08050000       0.76550000
C       -0.12530000      -0.82340000       1.17470000
O       -0.23280000      -0.40680000       2.45610000
C        0.08530000      -1.29130000       3.45020000
N       -0.16690000      -0.97050000       4.63900000
H        0.36280000       1.62320000      -0.86020000
H       -0.13420000      -2.78690000      -1.15100000
H        0.54860000      -2.20670000       3.07420000
H        0.14800000      -1.70480000       5.27000000
