17
Properties=species:S:1:pos:R:3 gdb_48735=T pbc="F F F"
O       -0.12220000      -0.00430000       0.08920000
C       -0.00830000       1.19480000      -0.02160000
C        1.26370000       1.91610000       0.02650000
C        1.36760000       3.38640000       0.36350000
C        1.77650000       2.98890000      -1.00740000
C        3.14300000       2.27010000      -1.06850000
C        4.21240000       2.64710000      -0.02470000
O        3.62100000       1.75330000       0.95680000
C        2.65890000       1.26340000      -0.00770000
H       -0.89660000       1.84810000      -0.19300000
H        0.41550000       3.90450000       0.42800000
H        2.09060000       3.67270000       1.11880000
H        1.23580000       3.33750000      -1.87880000
H        3.46290000       1.96390000      -2.06210000
H        5.22650000       2.32500000      -0.28910000
H        4.24050000       3.68760000       0.31870000
H        2.66290000       0.17930000      -0.12310000
