13
Properties=species:S:1:pos:R:3 gdb_129092=T pbc="F F F"
N       -0.13840000       1.36510000       0.21570000
C       -0.04880000       0.11140000       0.02240000
C        1.24600000      -0.59590000      -0.14240000
N        1.63120000      -1.58060000      -0.85880000
O        0.76870000      -2.19810000      -1.77560000
C       -0.58810000      -2.08470000      -1.84690000
N       -1.47100000      -1.54190000      -1.12730000
C       -1.27640000      -0.75200000       0.00810000
N       -2.07760000      -0.70960000       0.99040000
H        0.78660000       1.80600000       0.21700000
H        2.06470000      -0.20670000       0.46440000
H       -0.88230000      -2.65380000      -2.72790000
H       -2.85590000      -1.35250000       0.81990000
