17
Properties=species:S:1:pos:R:3 gdb_38662=T pbc="F F F"
C        0.06620000       1.54800000       0.23500000
C        1.46300000       2.00840000      -0.14360000
N        2.51960000       1.34740000       0.64080000
C        2.23710000       0.88010000      -0.73090000
C        1.37230000      -0.36430000      -0.73900000
O        1.93520000      -1.43480000       0.05720000
C        1.15450000      -1.50210000       1.16280000
N        0.11530000      -0.78420000       1.25890000
C        0.05530000       0.00940000       0.02090000
H       -0.18620000       1.79220000       1.26960000
H       -0.67020000       2.02960000      -0.41690000
H        1.61980000       3.02820000      -0.48150000
H        3.36440000       1.91290000       0.63160000
H        2.98200000       1.02720000      -1.50570000
H        1.22350000      -0.74890000      -1.75030000
H        1.49860000      -2.21220000       1.90650000
H       -0.84390000      -0.28510000      -0.52890000
