24
Properties=species:S:1:pos:R:3 gdb_7386=T pbc="F F F"
C        0.06150000       1.54430000       0.01800000
C       -0.00040000       0.00750000       0.02430000
C        0.79590000      -0.52070000       1.22960000
C       -1.45990000      -0.52480000      -0.00820000
C       -2.24580000       0.03230000      -1.20810000
C       -1.50220000      -2.06550000       0.01120000
C       -2.90060000      -2.67290000       0.06780000
O       -2.74650000      -4.06450000       0.31800000
H        1.09890000       1.88530000       0.09720000
H       -0.35470000       1.97960000      -0.89360000
H       -0.48750000       1.96240000       0.87090000
H        0.49730000      -0.35070000      -0.88990000
H        0.29460000      -0.26710000       2.17190000
H        0.93190000      -1.60410000       1.20410000
H        1.79250000      -0.06820000       1.25610000
H       -1.95210000      -0.16720000       0.91050000
H       -3.27860000      -0.32700000      -1.21290000
H       -2.28990000       1.12350000      -1.19750000
H       -1.78450000      -0.27600000      -2.15460000
H       -0.97970000      -2.46480000      -0.86850000
H       -0.97000000      -2.44620000       0.88730000
H       -3.48320000      -2.18820000       0.87000000
H       -3.44210000      -2.50650000      -0.87480000
H       -3.61760000      -4.47080000       0.29560000
