19
Properties=species:S:1:pos:R:3 gdb_6367=T pbc="F F F"
C       -0.13300000       1.50170000       0.00380000
C        0.01340000      -0.01240000       0.02400000
C        0.68370000      -0.54270000       1.28670000
O       -1.33590000      -0.54910000      -0.07310000
C       -1.47720000      -1.77390000      -0.60860000
O       -0.56870000      -2.45990000      -1.01030000
C       -2.94930000      -2.18190000      -0.64690000
N       -3.21280000      -3.49780000      -1.20130000
H        0.85280000       1.97450000       0.04450000
H       -0.63660000       1.83150000      -0.90880000
H       -0.71600000       1.84730000       0.86320000
H        0.56440000      -0.35960000      -0.85450000
H        0.11010000      -0.26020000       2.17530000
H        0.76780000      -1.63090000       1.24750000
H        1.69090000      -0.12470000       1.38020000
H       -3.34200000      -2.12050000       0.37480000
H       -3.49410000      -1.42000000      -1.21680000
H       -2.81910000      -3.54470000      -2.13730000
H       -2.68980000      -4.18910000      -0.67040000
