21
Properties=species:S:1:pos:R:3 gdb_83697=T pbc="F F F"
C       -0.22320000       1.52650000       0.07190000
C       -0.08050000       0.04000000      -0.00610000
C       -0.06030000      -0.73080000      -1.09730000
C        0.07980000      -2.19910000      -0.79430000
C        1.48200000      -2.81760000      -1.07080000
C        1.88330000      -2.49330000       0.39570000
C        0.38810000      -2.19820000       0.73640000
C        0.03760000      -0.79250000       1.26730000
O        0.94060000      -0.25900000       2.22920000
H        0.58380000       1.96310000       0.67050000
H       -0.21860000       1.98960000      -0.91830000
H       -1.15880000       1.80330000       0.57550000
H       -0.14220000      -0.35670000      -2.11430000
H       -0.77470000      -2.78270000      -1.15240000
H        1.42780000      -3.89340000      -1.25830000
H        2.07900000      -2.35650000      -1.86230000
H        2.35590000      -3.29720000       0.96320000
H        2.53040000      -1.61310000       0.46270000
H       -0.07290000      -2.99890000       1.31630000
H       -0.92340000      -0.80600000       1.79970000
H        1.82060000      -0.26300000       1.83740000
