18
Properties=species:S:1:pos:R:3 gdb_127156=T pbc="F F F"
C       -0.00600000       1.48970000       0.13620000
N       -0.02580000       0.03960000       0.01030000
C        0.75660000      -0.60070000       1.05540000
C       -1.38150000      -0.49410000      -0.05410000
C       -2.03910000      -0.18130000      -1.36390000
N       -3.03080000       0.66520000      -1.46460000
O       -3.33950000       0.65260000      -2.83090000
C       -2.48790000      -0.21020000      -3.38920000
N       -1.66230000      -0.76130000      -2.56140000
H        1.02600000       1.84700000       0.07070000
H       -0.57830000       1.94780000      -0.67440000
H       -0.43340000       1.84460000       1.09370000
H        0.35900000      -0.42240000       2.07340000
H        0.79110000      -1.68150000       0.88740000
H        1.78210000      -0.22020000       1.02650000
H       -1.32290000      -1.58370000       0.03300000
H       -2.03070000      -0.12590000       0.76060000
H       -2.57260000      -0.36350000      -4.45520000
