19
Properties=species:S:1:pos:R:3 gdb_93283=T pbc="F F F"
C        0.71040000       1.51310000      -0.32780000
C        0.01900000       0.20480000       0.08440000
C        0.13320000      -0.89040000      -1.01480000
C        1.47750000      -1.59690000      -0.75130000
C        1.67790000      -1.49220000       0.75960000
O        2.45040000      -2.11420000       1.44080000
C        0.69170000      -0.45260000       1.28020000
C        0.83460000       0.09980000       2.63200000
O       -0.12380000      -0.92020000       2.37080000
H        1.77070000       1.35930000      -0.55750000
H        0.23630000       1.93250000      -1.22080000
H        0.65220000       2.26180000       0.46780000
H       -1.02750000       0.41030000       0.32560000
H       -0.68590000      -1.60790000      -0.90140000
H        0.06370000      -0.47100000      -2.02160000
H        1.52160000      -2.63790000      -1.07870000
H        2.31190000      -1.07580000      -1.23830000
H        1.68850000      -0.20940000       3.23220000
H        0.42400000       1.08570000       2.84720000
