18
Properties=species:S:1:pos:R:3 gdb_121190=T pbc="F F F"
C        0.16560000       1.51120000      -0.05230000
C        0.42300000       0.01670000      -0.01230000
O        0.21070000      -0.50650000      -1.32310000
C        0.40870000      -1.87110000      -1.43440000
C        0.12540000      -2.42320000      -2.83830000
O        1.43880000      -3.03200000      -2.91330000
C        1.86650000      -2.41120000      -1.68970000
C        2.88570000      -1.37820000      -1.89040000
N        3.69100000      -0.56020000      -2.02470000
H        0.85470000       1.99610000      -0.74850000
H       -0.85830000       1.71710000      -0.37660000
H        0.31090000       1.94550000       0.94090000
H        1.45370000      -0.18840000       0.31080000
H       -0.25640000      -0.48600000       0.69440000
H       -0.08080000      -2.42480000      -0.62180000
H       -0.67240000      -3.16500000      -2.93430000
H       -0.00350000      -1.62840000      -3.58100000
H        2.24110000      -3.14990000      -0.97220000
