21
Properties=species:S:1:pos:R:3 gdb_88538=T pbc="F F F"
O        0.02050000       1.45280000       0.28070000
C       -0.01780000       0.06590000       0.09820000
C       -0.55380000      -0.82370000       1.19030000
C       -1.36760000      -0.57350000      -0.06910000
C       -2.63400000       0.21610000      -0.01960000
C       -3.22930000       1.11390000      -1.15370000
C       -4.26030000       1.17130000       0.00730000
C       -4.07500000      -0.36410000       0.15810000
C       -3.05730000       1.34190000       0.97610000
H        0.71190000       1.64750000       0.92170000
H        0.79250000      -0.32850000      -0.51570000
H       -0.10490000      -1.79820000       1.35000000
H       -0.89920000      -0.32520000       2.09020000
H       -1.39780000      -1.39210000      -0.78480000
H       -2.68100000       2.03240000      -1.37770000
H       -3.54610000       0.60060000      -2.06700000
H       -5.20040000       1.72320000       0.02510000
H       -4.45330000      -0.98910000      -0.65700000
H       -4.31060000      -0.79670000       1.13530000
H       -3.22260000       1.03720000       2.01460000
H       -2.49420000       2.27440000       0.91390000
