15
Properties=species:S:1:pos:R:3 gdb_29141=T pbc="F F F"
C       -0.01640000       1.53330000       0.00530000
C       -0.00090000       0.02890000       0.01200000
C       -0.03380000      -0.68060000      -1.13380000
O       -0.02110000      -2.04240000      -1.16740000
C        0.02620000      -2.78790000      -0.02970000
O        0.03680000      -4.00050000      -0.08030000
C        0.06290000      -2.05320000       1.23260000
O        0.10900000      -2.82900000       2.32870000
C        0.04980000      -0.69850000       1.25140000
H        0.87880000       1.93960000       0.48950000
H       -0.05620000       1.92660000      -1.01360000
H       -0.88340000       1.92170000       0.55140000
H       -0.07280000      -0.26320000      -2.13070000
H        0.10660000      -3.74320000       1.99290000
H        0.07750000      -0.16830000       2.19740000
