21
Properties=species:S:1:pos:R:3 gdb_114472=T pbc="F F F"
O       -0.22700000       1.60710000       0.20690000
C        0.04260000       0.20970000       0.24730000
C       -1.26980000      -0.51370000       0.02050000
C       -1.97240000      -0.47300000      -1.38040000
C       -2.16600000      -2.02210000      -1.31690000
C       -1.14070000      -2.95610000      -2.00460000
C        0.23790000      -2.37100000      -2.02650000
C       -0.27570000      -2.94250000      -0.73090000
C       -1.33180000      -2.07280000      -0.00620000
H        0.60740000       2.07600000       0.29910000
H        0.78810000      -0.06710000      -0.51100000
H        0.45300000      -0.08920000       1.22680000
H       -1.96650000      -0.14720000       0.78220000
H       -2.90240000       0.09880000      -1.39380000
H       -1.34940000      -0.11440000      -2.20390000
H       -3.19310000      -2.38600000      -1.33120000
H       -1.40760000      -3.79400000      -2.63830000
H        0.98310000      -2.99310000      -2.51370000
H        0.40490000      -1.31030000      -2.17380000
H        0.24450000      -3.76710000      -0.25700000
H       -1.72910000      -2.56050000       0.88540000
