20
Properties=species:S:1:pos:R:3 gdb_54911=T pbc="F F F"
C       -0.35280000       1.52180000      -0.05110000
C        0.02820000       0.04200000      -0.02260000
C       -1.18680000      -0.85540000      -0.22220000
C        1.28000000      -0.28240000      -0.89430000
C        2.09640000      -0.32540000       0.42860000
N        0.82670000      -0.32930000       1.19730000
H        0.77690000       0.33570000       1.96320000
H        1.43580000      -2.11230000       1.60030000
C        2.93760000      -1.58060000       0.65180000
O        4.04450000      -1.72240000       0.20530000
O        2.29890000      -2.52040000       1.36440000
H        0.52460000       2.16390000       0.07980000
H       -0.82160000       1.78380000      -1.00540000
H       -1.06910000       1.75360000       0.74580000
H       -1.65340000      -0.66640000      -1.19510000
H       -0.90040000      -1.90970000      -0.17570000
H       -1.93860000      -0.67290000       0.55370000
H        1.22430000      -1.24810000      -1.40030000
H        1.57930000       0.48070000      -1.61280000
H        2.73540000       0.55100000       0.56880000
