9
Properties=species:S:1:pos:R:3 gdb_15=T pbc="F F F"
C       -0.01480000       1.39240000       0.00570000
O       -0.00470000      -0.01360000       0.01460000
C        0.63790000      -0.55330000      -1.11360000
H        1.00530000       1.81020000       0.00470000
H       -0.54690000       1.79340000      -0.87250000
H       -0.53000000       1.72290000       0.91100000
H        0.13990000      -0.25600000      -2.05100000
H        1.69270000      -0.23870000      -1.17480000
H        0.59960000      -1.64180000      -1.02410000
