11
Properties=species:S:1:pos:R:3 gdb_132341=T pbc="F F F"
O        0.00310000       1.22200000       0.05530000
C        0.02380000      -0.10520000      -0.01660000
N       -1.21140000      -0.60920000      -0.20710000
C       -1.72430000      -1.71600000      -0.03020000
N       -2.51230000      -2.60620000       0.16440000
O        0.44550000      -2.90510000      -0.08530000
C        1.28900000      -2.04580000      -0.03040000
F        2.57530000      -2.39730000      -0.03820000
N        1.18700000      -0.68900000       0.04760000
H        0.92750000       1.49840000       0.14970000
H       -2.32160000      -3.57930000      -0.02100000
