17
Properties=species:S:1:pos:R:3 gdb_78565=T pbc="F F F"
C        0.11870000       1.58000000       0.07000000
C       -0.02040000       0.09720000      -0.00710000
C        0.37250000      -0.95630000      -0.98720000
C        0.96330000      -1.01670000       0.43640000
C       -0.11480000      -1.55340000       1.32090000
O       -0.13470000      -2.08130000       2.39790000
C       -1.18490000      -0.89690000       0.43050000
C       -0.99930000      -1.61680000      -0.94350000
O       -1.78720000      -1.08790000      -1.98620000
H        1.10540000       1.89610000      -0.28330000
H       -0.63520000       2.07400000      -0.55190000
H       -0.00060000       1.93880000       1.09800000
H        1.03450000      -0.87200000      -1.84070000
H        2.02750000      -0.93510000       0.61390000
H       -2.16970000      -0.63930000       0.81240000
H       -1.04300000      -2.71590000      -0.92380000
H       -2.68370000      -1.42310000      -1.88190000
