19
Properties=species:S:1:pos:R:3 gdb_117262=T pbc="F F F"
C       -0.22690000       1.47280000      -0.17880000
C        0.20890000       0.04410000       0.08130000
O        0.69380000      -0.49880000      -1.16560000
C        1.15600000      -1.76160000      -1.11540000
O        1.17650000      -2.43330000      -0.11260000
C        1.65430000      -2.22420000      -2.46050000
C        3.10930000      -2.76530000      -2.49100000
O        2.68270000      -4.03370000      -3.01670000
C        1.29660000      -3.67850000      -2.85480000
H        0.61090000       2.07780000      -0.53630000
H       -1.02240000       1.50900000      -0.92840000
H       -0.60430000       1.91910000       0.74600000
H        1.00870000      -0.01430000       0.82590000
H       -0.61610000      -0.57980000       0.43910000
H        1.44230000      -1.48310000      -3.22920000
H        3.79710000      -2.24530000      -3.16660000
H        3.56480000      -2.86280000      -1.49830000
H        0.81900000      -4.24370000      -2.04630000
H        0.72790000      -3.79700000      -3.78340000
