20
Properties=species:S:1:pos:R:3 gdb_23290=T pbc="F F F"
C       -0.11020000       1.52750000       0.00680000
C        0.05850000       0.01090000       0.04650000
C        0.99700000      -0.56940000      -1.07820000
C        2.05230000      -1.29030000      -0.20520000
C        1.14040000      -1.99030000       0.86120000
C        0.82150000      -0.51830000       1.29260000
C        2.26120000      -0.25850000       0.89420000
N        3.19110000       0.40810000       1.42790000
O        4.41020000       0.23140000       0.72620000
H        0.85840000       2.03220000       0.08810000
H       -0.57870000       1.84540000      -0.93070000
H       -0.74090000       1.87850000       0.83090000
H       -0.92820000      -0.46300000       0.00150000
H        0.47790000      -1.26410000      -1.74450000
H        1.43990000       0.22180000      -1.68970000
H        2.88160000      -1.79310000      -0.69600000
H        0.30500000      -2.58710000       0.48280000
H        1.70760000      -2.54240000       1.61200000
H        0.43350000      -0.26320000       2.27710000
H        5.01370000       0.77640000       1.24210000
