17
Properties=species:S:1:pos:R:3 gdb_25908=T pbc="F F F"
C       -0.01760000       1.50930000      -0.00860000
C        0.05250000      -0.00500000       0.00010000
O        1.09640000      -0.61690000      -0.01440000
N       -1.17210000      -0.68250000       0.02590000
C       -2.44970000      -0.14140000       0.03900000
C       -3.34970000      -1.16450000       0.06000000
C       -2.60800000      -2.39910000       0.05610000
N       -3.18360000      -3.67160000       0.15030000
C       -1.27850000      -2.07670000       0.03170000
H        1.00290000       1.88950000      -0.02530000
H       -0.55530000       1.87650000      -0.88780000
H       -0.53080000       1.88770000       0.88060000
H       -2.60530000       0.92340000       0.03310000
H       -4.42490000      -1.06580000       0.08500000
H       -4.05360000      -3.75120000      -0.35950000
H       -2.55740000      -4.41460000      -0.13010000
H       -0.38560000      -2.67600000       0.02340000
