18
Properties=species:S:1:pos:R:3 gdb_30049=T pbc="F F F"
C        0.05770000       1.45160000       0.01560000
N       -0.00950000      -0.00300000       0.02390000
C       -0.10920000      -0.76760000      -1.09480000
C       -0.15150000      -2.10430000      -0.73560000
C       -0.07380000      -2.14700000       0.66660000
C        0.01430000      -0.83690000       1.13430000
C        0.11550000      -0.34190000       2.50230000
C        0.12890000      -1.38910000       3.60740000
O        0.18690000       0.84900000       2.77010000
H        0.98270000       1.80000000       0.47710000
H        0.01510000       1.78450000      -1.02350000
H       -0.77410000       1.88180000       0.57510000
H       -0.14280000      -0.30370000      -2.06880000
H       -0.22930000      -2.93930000      -1.41410000
H       -0.08000000      -3.03010000       1.28670000
H        0.97490000      -2.07350000       3.48750000
H        0.20690000      -0.87910000       4.56800000
H       -0.78500000      -1.99140000       3.58670000
