17
Properties=species:S:1:pos:R:3 gdb_12628=T pbc="F F F"
C       -0.13490000       1.55210000       0.06050000
C        0.03930000       0.03000000      -0.05250000
C        0.91140000      -0.45530000      -1.18380000
C        1.91040000      -1.18040000      -0.67220000
N        1.83390000      -1.26140000       0.72870000
C        2.77220000      -1.93660000       1.59530000
C        0.74210000      -0.54570000       1.19140000
O        0.43150000      -0.40410000       2.35510000
H        0.83630000       2.05580000       0.07330000
H       -0.70970000       1.94200000      -0.78450000
H       -0.66090000       1.79470000       0.98770000
H       -0.95720000      -0.43130000      -0.09880000
H        0.74590000      -0.24920000      -2.23030000
H        2.72090000      -1.68720000      -1.17800000
H        2.80890000      -3.01130000       1.38450000
H        3.78230000      -1.52360000       1.49170000
H        2.42810000      -1.78460000       2.62000000
