18
Properties=species:S:1:pos:R:3 gdb_37626=T pbc="F F F"
C       -0.02470000       1.57340000       0.01740000
C        1.48270000       1.83520000       0.02220000
C        2.01170000       0.83980000       1.07450000
C        2.48090000      -0.09800000       0.01490000
C        2.13410000       0.90570000      -1.08560000
O        1.24900000       0.42630000      -2.07900000
C        0.23970000      -0.39930000      -1.48840000
C        0.01770000       0.03040000      -0.03500000
N        1.22970000      -0.35960000       0.76460000
H       -0.50030000       1.94650000       0.92990000
H       -0.53510000       2.00250000      -0.84940000
H        1.81120000       2.87330000       0.04550000
H        2.37090000       1.01710000       2.08000000
H        3.25430000      -0.85830000       0.01720000
H        2.98750000       1.35600000      -1.59340000
H       -0.66820000      -0.27740000      -2.08760000
H        0.54140000      -1.45670000      -1.52200000
H       -0.85940000      -0.46060000       0.39150000
