16
Properties=species:S:1:pos:R:3 gdb_3189=T pbc="F F F"
O        0.12620000       1.23740000       0.62690000
C        0.11220000      -0.10430000       0.20070000
C        1.08820000      -0.50690000      -0.87540000
C        1.32420000      -0.91290000       0.56610000
C       -1.24110000      -0.75540000       0.26210000
C       -2.18470000      -0.41860000       1.35300000
N       -2.45710000       0.01720000      -0.03370000
H        0.02300000       1.79730000      -0.14920000
H        0.78600000      -1.26580000      -1.58920000
H        1.72820000       0.26940000      -1.28180000
H        2.10310000      -0.39140000       1.10940000
H        1.18690000      -1.95260000       0.84230000
H       -1.25740000      -1.76520000      -0.14370000
H       -2.86480000      -1.17210000       1.73940000
H       -1.86700000       0.33410000       2.06800000
H       -2.20450000       1.00140000      -0.10240000
