21
Properties=species:S:1:pos:R:3 gdb_63591=T pbc="F F F"
C       -0.12680000       1.53560000       0.04220000
C        0.00310000       0.02940000       0.04940000
O       -1.16410000      -0.64050000      -0.35980000
C        1.32420000      -0.63150000      -0.27640000
C        0.76620000      -0.68540000       1.13160000
C        1.41270000       0.04370000       2.31350000
C        1.47660000      -1.06650000       3.37600000
O        0.34330000      -1.87980000       3.12260000
C        0.24980000      -2.01120000       1.71080000
H        0.78970000       2.02260000       0.38540000
H       -0.33430000       1.89850000      -0.97200000
H       -0.95200000       1.85440000       0.68760000
H       -1.28140000      -0.48300000      -1.30310000
H        1.28380000      -1.54770000      -0.85910000
H        2.19080000      -0.00540000      -0.46930000
H        2.39720000       0.45820000       2.07880000
H        0.77560000       0.86160000       2.66570000
H        2.40800000      -1.64870000       3.27130000
H        1.41070000      -0.70250000       4.40440000
H       -0.79010000      -2.21530000       1.45140000
H        0.87240000      -2.85130000       1.36080000
