17
Properties=species:S:1:pos:R:3 gdb_7745=T pbc="F F F"
C        0.02980000       1.50910000       0.04150000
C       -0.06520000       0.01340000      -0.01130000
C       -1.19440000      -0.69280000       0.10430000
C       -1.16320000      -2.19870000       0.08400000
C        0.00780000      -2.70850000      -0.77120000
C        1.31820000      -1.98180000      -0.50020000
O        2.41520000      -2.49190000      -0.59760000
N        1.16520000      -0.64720000      -0.18660000
H        0.68150000       1.83490000       0.86240000
H        0.45170000       1.91400000      -0.88640000
H       -0.95500000       1.95300000       0.19620000
H       -2.13510000      -0.17400000       0.24270000
H       -1.07000000      -2.58650000       1.11020000
H       -2.10360000      -2.60310000      -0.30410000
H        0.18830000      -3.77700000      -0.64090000
H       -0.21790000      -2.54390000      -1.83390000
H        2.02640000      -0.12860000      -0.09330000
