21
Properties=species:S:1:pos:R:3 gdb_40151=T pbc="F F F"
C        0.08950000       1.42220000      -0.37090000
O        1.21260000       0.52530000      -0.34840000
C       -0.07820000      -0.00870000      -0.11060000
C       -0.51920000      -0.70240000       1.17930000
C       -1.49840000      -1.54670000       0.30890000
C       -0.75170000      -1.08800000      -0.97170000
C       -1.40370000      -0.74800000      -2.33230000
C       -0.13970000      -1.30540000      -3.04110000
C        0.23240000      -2.03350000      -1.72180000
H        0.04280000       2.13060000       0.45610000
H       -0.15310000       1.83670000      -1.34840000
H        0.28880000      -1.30300000       1.60630000
H       -0.94770000      -0.07680000       1.96560000
H       -1.51700000      -2.62330000       0.49380000
H       -2.52320000      -1.16600000       0.34680000
H       -2.28360000      -1.37390000      -2.51430000
H       -1.68110000       0.29500000      -2.51120000
H       -0.28860000      -1.91750000      -3.93340000
H        0.57720000      -0.51380000      -3.27310000
H        1.27860000      -2.00660000      -1.40970000
H       -0.12240000      -3.06880000      -1.70670000
