19
Properties=species:S:1:pos:R:3 gdb_82444=T pbc="F F F"
C       -0.03280000       1.41940000      -0.13020000
C        0.04320000      -0.06580000      -0.03610000
O       -0.51140000      -0.84680000      -1.11300000
C       -0.40310000      -1.98840000      -0.22310000
C       -0.29210000      -1.05630000       1.03130000
C        1.17700000      -0.89420000       0.60220000
C        2.34450000      -0.34880000       1.36540000
C        1.13130000      -2.22370000      -0.14690000
O        1.51450000      -3.26080000       0.73310000
H        0.54270000       1.78230000      -0.98870000
H       -1.07070000       1.74470000      -0.25060000
H        0.37170000       1.88550000       0.77250000
H       -1.11800000      -2.78610000      -0.42080000
H       -0.79110000      -0.99230000       1.98830000
H        2.74910000      -1.11340000       2.03650000
H        3.14890000      -0.03170000       0.69120000
H        2.06130000       0.51560000       1.97460000
H        1.65030000      -2.29390000      -1.11420000
H        1.38510000      -4.09850000       0.27710000
