19
Properties=species:S:1:pos:R:3 gdb_78661=T pbc="F F F"
C        0.00730000       1.63900000      -0.04870000
C        0.08420000       0.11700000      -0.01600000
C        1.11160000      -0.66890000      -0.89260000
C        1.23680000      -1.73080000       0.27900000
C        2.24230000      -0.74840000       0.88170000
C        2.51830000      -0.13800000      -0.48970000
O        3.58590000      -0.74300000      -1.18880000
C        0.72850000      -0.62920000       1.15510000
O        0.21090000      -0.79540000       2.42380000
H        0.96730000       2.10960000       0.18330000
H       -0.31170000       1.99670000      -1.03380000
H       -0.72370000       2.00070000       0.68290000
H       -0.91180000      -0.31150000      -0.18150000
H        0.90200000      -0.89000000      -1.93750000
H        1.12820000      -2.80280000       0.34630000
H        2.93350000      -0.92670000       1.69690000
H        2.70080000       0.93750000      -0.57000000
H        3.50670000      -1.69680000      -1.06400000
H        0.47440000      -0.04150000       2.96280000
