16
Properties=species:S:1:pos:R:3 gdb_18008=T pbc="F F F"
C        0.01200000       1.42300000       0.26430000
N       -0.06670000      -0.02300000       0.41720000
C       -1.07050000      -0.63090000      -0.00420000
O       -2.23890000      -0.15010000      -0.61210000
C       -2.83470000      -1.47710000      -0.62440000
C       -2.55990000      -2.27130000      -1.91450000
N       -1.22160000      -2.67870000      -1.39090000
C       -1.52330000      -2.07670000      -0.05950000
H        0.84370000       1.66570000      -0.40670000
H       -0.90180000       1.88190000      -0.13070000
H        0.24390000       1.87150000       1.23600000
H       -3.82170000      -1.48060000      -0.16450000
H       -3.26450000      -3.10170000      -2.04420000
H       -2.52140000      -1.68370000      -2.83670000
H       -1.09840000      -3.68260000      -1.34580000
H       -1.40820000      -2.70340000       0.82390000
