17
Properties=species:S:1:pos:R:3 gdb_26528=T pbc="F F F"
C        0.06090000       1.52980000       0.03060000
C       -0.02350000       0.03520000      -0.00280000
C       -1.17310000      -0.68460000       0.05180000
N       -2.44000000      -0.13220000       0.17490000
C       -1.11560000      -2.15900000       0.03710000
N       -2.22700000      -2.80470000       0.09320000
N        0.13700000      -2.77300000      -0.04400000
C        1.18790000      -2.02680000      -0.10610000
N        1.17720000      -0.67300000      -0.09480000
H        0.95410000       1.86400000       0.57130000
H        0.09960000       1.97510000      -0.97250000
H       -0.80910000       1.94190000       0.54830000
H       -2.62370000       0.69400000      -0.37420000
H       -3.14020000      -0.85880000       0.05900000
H       -2.03660000      -3.80660000       0.07500000
H        2.17280000      -2.48430000      -0.17690000
H        2.04560000      -0.16550000      -0.13970000
