17
Properties=species:S:1:pos:R:3 gdb_11297=T pbc="F F F"
O       -0.70610000       1.14170000       0.85500000
C        0.02810000       0.20190000       0.07450000
C        0.91490000      -0.70720000       0.94960000
C       -0.00450000      -1.85930000       1.44080000
C       -1.36470000      -1.64260000       0.70530000
C       -1.00380000      -0.75960000      -0.51440000
C       -2.04240000      -2.88520000       0.35690000
N       -2.56950000      -3.87510000       0.07560000
H       -0.07780000       1.69500000       1.32940000
H        0.60540000       0.71730000      -0.70520000
H        1.74110000      -1.10340000       0.35070000
H        1.36250000      -0.14440000       1.77460000
H        0.41610000      -2.83260000       1.17860000
H       -0.14790000      -1.85330000       2.52280000
H       -2.03010000      -1.06230000       1.35090000
H       -1.86660000      -0.23780000      -0.93180000
H       -0.54610000      -1.36630000      -1.30180000
