18
Properties=species:S:1:pos:R:3 gdb_100572=T pbc="F F F"
C        0.78570000       0.59760000      -0.07190000
C        0.03490000      -0.71130000      -0.32470000
C       -1.42900000      -0.63030000       0.16820000
O       -2.11400000       0.42710000      -0.44730000
C       -2.16030000      -1.93770000      -0.09990000
O       -3.10290000      -1.97340000      -0.85550000
C       -1.66640000      -3.24550000       0.54580000
C       -1.06270000      -3.10240000       1.86530000
N       -0.58840000      -2.97960000       2.91170000
H        1.80260000       0.54310000      -0.47080000
H        0.26830000       1.43190000      -0.55080000
H        0.85510000       0.80880000       1.00040000
H        0.02160000      -0.93680000      -1.39830000
H        0.54750000      -1.53750000       0.18160000
H       -1.41470000      -0.47490000       1.25950000
H       -2.81390000       0.01940000      -0.97990000
H       -2.51670000      -3.93140000       0.58810000
H       -0.93030000      -3.69030000      -0.13630000
