26
Properties=species:S:1:pos:R:3 gdb_60390=T pbc="F F F"
C       -0.15720000       1.55590000       0.31680000
C        0.00410000       0.06470000      -0.00830000
C        1.11810000      -0.55460000       0.84810000
C       -1.33930000      -0.66980000       0.15130000
C       -1.34550000      -2.12570000      -0.33920000
C       -2.72940000      -2.74580000      -0.32020000
C       -2.92410000      -4.22210000      -0.23510000
N       -3.34460000      -3.35860000       0.86210000
C       -2.60710000      -3.45400000       2.11170000
H        0.78190000       2.09910000       0.16790000
H       -0.91970000       2.02260000      -0.31560000
H       -0.45960000       1.69830000       1.36140000
H        0.30410000      -0.01870000      -1.06370000
H        2.05680000      -0.00390000       0.72620000
H        0.85330000      -0.52460000       1.91210000
H        1.31400000      -1.59770000       0.58250000
H       -1.64460000      -0.63610000       1.20640000
H       -2.10970000      -0.11490000      -0.40110000
H       -0.97810000      -2.15690000      -1.37460000
H       -0.64730000      -2.73330000       0.24430000
H       -3.45580000      -2.18220000      -0.90750000
H       -3.71610000      -4.72090000      -0.78860000
H       -2.02670000      -4.82470000      -0.09010000
H       -1.53420000      -3.67830000       2.00270000
H       -2.70700000      -2.51620000       2.66820000
H       -3.05140000      -4.25170000       2.71620000
