18
Properties=species:S:1:pos:R:3 gdb_38864=T pbc="F F F"
C       -0.05640000       1.51740000       0.08130000
C        1.48680000       1.44680000      -0.03510000
O        2.03740000       1.12780000       1.25080000
C        1.73260000      -0.21980000       1.57960000
C        2.61080000      -1.15780000       0.75060000
N        2.25400000      -0.97070000      -0.66830000
C        1.30070000       0.09910000      -0.81980000
C        0.00190000      -0.03080000       0.03160000
O        0.36730000      -0.51450000       1.33230000
H       -0.45850000       1.95890000       0.99360000
H       -0.52710000       1.95120000      -0.80530000
H        2.06250000       2.27770000      -0.44710000
H        1.90110000      -0.33710000       2.65190000
H        3.66250000      -0.92040000       0.95050000
H        2.42910000      -2.19440000       1.06310000
H        3.07330000      -0.81840000      -1.24170000
H        1.07280000       0.27390000      -1.87280000
H       -0.84440000      -0.62370000      -0.31790000
