23
Properties=species:S:1:pos:R:3 gdb_82306=T pbc="F F F"
C        0.02960000       1.59540000      -0.10400000
C        0.07560000       0.06850000       0.00270000
C        0.74550000      -0.61120000      -1.17760000
O        2.18200000      -0.59610000      -1.13750000
C        1.49040000      -1.78330000      -0.71530000
C        1.33400000      -1.91170000       0.78440000
C        0.79050000      -0.52960000       1.27360000
C        1.96000000       0.34410000       1.76550000
C       -0.21260000      -0.70690000       2.42300000
H        1.03050000       2.01870000      -0.22220000
H       -0.56500000       1.89910000      -0.97230000
H       -0.42970000       2.04750000       0.78100000
H       -0.96170000      -0.29880000       0.00820000
H        0.31230000      -0.53540000      -2.17330000
H        1.66010000      -2.66010000      -1.33580000
H        0.61160000      -2.71290000       0.98770000
H        2.26810000      -2.18550000       1.28630000
H        2.70470000       0.49020000       0.98160000
H        1.61320000       1.32500000       2.10570000
H        2.45020000      -0.14030000       2.61770000
H        0.26850000      -1.15940000       3.29730000
H       -0.62610000       0.25750000       2.73980000
H       -1.04930000      -1.35070000       2.13040000
