21
Properties=species:S:1:pos:R:3 gdb_84363=T pbc="F F F"
C        0.12610000       1.56110000      -0.01780000
C        0.02640000       0.02750000       0.00190000
C       -1.45830000      -0.39320000      -0.04830000
C        0.77240000      -0.60440000      -1.15810000
C        1.56000000      -1.61560000      -0.80160000
C        1.54140000      -1.84700000       0.68530000
O        2.84080000      -1.93840000       1.27260000
C        0.72540000      -0.62220000       1.24190000
O        1.60520000       0.30230000       1.85120000
H        1.16560000       1.89070000       0.00670000
H       -0.34730000       1.95530000      -0.92400000
H       -0.38310000       1.99810000       0.84670000
H       -1.92650000      -0.06210000      -0.98140000
H       -1.56890000      -1.48090000       0.01090000
H       -2.01440000       0.05370000       0.78300000
H        0.61550000      -0.26540000      -2.17820000
H        2.15110000      -2.23360000      -1.46920000
H        1.05630000      -2.79400000       0.94850000
H        3.37980000      -1.25930000       0.84960000
H       -0.02660000      -0.95690000       1.97140000
H        2.23370000      -0.23460000       2.35190000
