24
Properties=species:S:1:pos:R:3 gdb_5991=T pbc="F F F"
C       -0.01720000       1.55850000       0.15780000
C        0.02340000       0.03360000       0.02020000
C       -1.37830000      -0.58070000      -0.06580000
C       -1.43450000      -2.12150000      -0.08530000
C       -2.90520000      -2.56880000      -0.12900000
C       -0.66750000      -2.69810000      -1.28820000
O       -0.82790000      -2.50490000       1.15970000
C       -0.66280000      -3.87870000       1.41960000
H        0.99120000       1.98040000       0.21770000
H       -0.52110000       2.02320000      -0.69770000
H       -0.55840000       1.86090000       1.06140000
H        0.60440000      -0.22970000      -0.87190000
H        0.54750000      -0.40630000       0.87430000
H       -1.96540000      -0.24460000       0.79820000
H       -1.89390000      -0.20530000      -0.95920000
H       -3.39510000      -2.18110000      -1.02770000
H       -3.00100000      -3.65840000      -0.15040000
H       -3.44310000      -2.19240000       0.74620000
H        0.40600000      -2.51370000      -1.19620000
H       -0.82070000      -3.77670000      -1.38830000
H       -1.01670000      -2.23260000      -2.21510000
H        0.01670000      -4.36810000       0.70760000
H       -0.22240000      -3.95320000       2.41770000
H       -1.61340000      -4.43100000       1.42400000
