12
Properties=species:S:1:pos:R:3 gdb_4953=T pbc="F F F"
N       -0.02780000       1.21450000       0.44260000
C       -0.01370000       0.02490000       0.02830000
O        1.14750000      -0.56010000      -0.42020000
C        1.12320000      -1.85730000      -0.86350000
C        0.01540000      -2.58330000      -0.87920000
O       -1.19240000      -2.09330000      -0.45360000
C       -1.27430000      -0.80110000       0.01020000
N       -2.36750000      -0.31840000       0.40880000
H        0.90960000       1.61770000       0.38310000
H        2.08940000      -2.21000000      -1.19040000
H       -0.04040000      -3.60560000      -1.22070000
H       -3.11000000      -1.01590000       0.32530000
