18
Properties=species:S:1:pos:R:3 gdb_46993=T pbc="F F F"
O        0.03660000      -0.08190000      -0.00100000
C       -0.02720000       1.12050000       0.05700000
C       -1.35200000       1.88200000       0.14950000
N       -1.24200000       3.07160000       1.01190000
C        0.00080000       3.83680000       0.86290000
C        0.38840000       4.15240000      -0.59450000
O        1.01940000       2.95890000      -1.08360000
C        1.19390000       2.04300000       0.00910000
C        1.16990000       2.92270000       1.26360000
H       -1.63270000       2.12030000      -0.89240000
H       -2.11090000       1.20250000       0.54500000
H       -2.04140000       3.67520000       0.85560000
H       -0.07630000       4.73680000       1.47730000
H       -0.48180000       4.38280000      -1.22050000
H        1.09230000       4.99350000      -0.65850000
H        2.10310000       1.46280000      -0.15680000
H        2.10700000       3.47730000       1.36400000
H        0.96830000       2.37350000       2.18510000
