17
Properties=species:S:1:pos:R:3 gdb_24656=T pbc="F F F"
C        0.15210000       1.56390000       0.03460000
N        1.26020000       0.61700000      -0.11660000
C       -0.10590000       0.09090000       0.03740000
C       -0.42490000      -0.66140000       1.28180000
C        0.44010000      -0.67510000       2.38190000
N        0.18560000      -1.31250000       3.52650000
C       -0.96730000      -1.98130000       3.61620000
C       -1.89650000      -2.04700000       2.58220000
C       -1.61710000      -1.37620000       1.39770000
H        0.13980000       2.10160000       0.97860000
H       -0.17720000       2.13980000      -0.82660000
H        1.55340000       0.55770000      -1.08730000
H       -0.59680000      -0.29620000      -0.85410000
H        1.38890000      -0.15070000       2.31380000
H       -1.15360000      -2.49340000       4.55740000
H       -2.81390000      -2.61270000       2.70290000
H       -2.31790000      -1.40610000       0.56770000
