21
Properties=species:S:1:pos:R:3 gdb_90817=T pbc="F F F"
C       -0.19410000       1.57580000      -0.00400000
C        0.00370000       0.05890000      -0.02150000
C        0.79540000      -0.47090000      -1.26590000
C        1.93340000      -1.30930000      -0.66940000
C        2.99360000      -0.50800000       0.09920000
C        2.84780000      -1.33630000       1.35190000
C        2.24460000       0.04810000       1.32160000
C        0.80960000      -0.48360000       1.17130000
C        1.48610000      -1.82140000       0.73890000
H        0.77090000       2.09480000      -0.01920000
H       -0.76550000       1.91230000      -0.87560000
H       -0.73480000       1.89950000       0.89250000
H       -0.98630000      -0.41580000      -0.00640000
H        0.15060000      -1.07270000      -1.91570000
H        1.18540000       0.34980000      -1.87890000
H        2.35920000      -2.06960000      -1.32730000
H        3.87910000      -0.01960000      -0.28830000
H        3.57830000      -1.78690000       2.00710000
H        2.58820000       0.93750000       1.83400000
H        0.26490000      -0.52180000       2.11780000
H        1.00420000      -2.78670000       0.87910000
