17
Properties=species:S:1:pos:R:3 gdb_128776=T pbc="F F F"
C        0.08070000       1.34240000      -0.08570000
O       -0.02020000      -0.05660000      -0.22360000
C       -1.28960000      -0.55520000       0.15560000
C       -1.24840000      -2.04220000       0.06200000
C       -2.23610000      -2.98920000      -0.12780000
O       -3.55890000      -2.69630000      -0.29720000
C       -1.57320000      -4.23450000      -0.08780000
N       -0.26220000      -4.07800000       0.10590000
N       -0.09790000      -2.75320000       0.21080000
H        1.09070000       1.62720000      -0.38890000
H       -0.64490000       1.86620000      -0.72650000
H       -0.08480000       1.66220000       0.95490000
H       -1.52670000      -0.22580000       1.18340000
H       -2.08810000      -0.16360000      -0.49440000
H       -4.03100000      -3.50920000      -0.49900000
H       -1.99300000      -5.22460000      -0.19610000
H        0.82400000      -2.35810000       0.28790000
