18
Properties=species:S:1:pos:R:3 gdb_90145=T pbc="F F F"
O       -0.03860000       1.46020000      -0.09160000
C        0.09140000       0.07330000       0.01720000
C        0.39420000      -0.55070000       1.44480000
C       -0.92700000      -1.32250000       1.32220000
N       -1.99340000      -0.30060000       1.13090000
C       -1.21150000      -0.75630000      -0.03300000
C       -1.72750000      -1.86580000      -0.93170000
C       -1.79590000      -3.04770000       0.03690000
C       -1.31680000      -2.75450000       1.25680000
H       -0.79860000       1.69080000       0.45960000
H        0.82320000      -0.24590000      -0.72910000
H        1.27800000      -1.19220000       1.43910000
H        0.45920000       0.16270000       2.26980000
H       -2.89360000      -0.77490000       1.13100000
H       -2.69810000      -1.65230000      -1.39720000
H       -1.03080000      -2.06690000      -1.75600000
H       -2.23640000      -3.99930000      -0.24430000
H       -1.25570000      -3.44870000       2.08710000
