17
Properties=species:S:1:pos:R:3 gdb_66022=T pbc="F F F"
C       -0.13050000       1.55130000       0.00310000
C       -0.06720000       0.01960000      -0.01290000
C        1.15650000      -0.52500000      -0.82370000
N        1.93110000      -0.59840000       0.43490000
C        0.69230000      -0.59300000       1.23520000
C        0.73930000       0.18430000       2.47260000
N        0.75780000       0.80000000       3.45050000
C       -1.35520000      -0.57890000      -0.30350000
C       -2.42370000      -1.07430000      -0.54530000
H        0.85700000       1.96730000       0.21860000
H       -0.46460000       1.91770000      -0.97140000
H       -0.83200000       1.90450000       0.76300000
H        0.93870000      -1.49400000      -1.28850000
H        1.57650000       0.15380000      -1.57200000
H        2.51620000      -1.41710000       0.55580000
H        0.28880000      -1.58780000       1.46480000
H       -3.36960000      -1.50840000      -0.75760000
