24
Properties=species:S:1:pos:R:3 gdb_56145=T pbc="F F F"
C       -0.01230000       1.56440000       0.17060000
C        0.00510000       0.02890000       0.05200000
C        0.61180000      -0.58060000       1.32980000
C       -1.44300000      -0.47560000      -0.09680000
C        0.78790000      -0.42390000      -1.20420000
C        2.25630000       0.00640000      -1.29170000
C        2.97940000      -0.68570000      -2.44790000
N        3.98970000       0.04290000      -3.01110000
O        2.69410000      -1.80150000      -2.83750000
H        0.98990000       1.97300000       0.33710000
H       -0.41770000       2.02710000      -0.73650000
H       -0.63740000       1.88180000       1.01250000
H        0.00570000      -0.32340000       2.20540000
H        0.65580000      -1.67330000       1.26400000
H        1.62590000      -0.21470000       1.52050000
H       -1.91870000      -0.05530000      -0.98980000
H       -1.47370000      -1.56700000      -0.18520000
H       -2.04960000      -0.19190000       0.77030000
H        0.76130000      -1.51610000      -1.27620000
H        0.26400000      -0.05230000      -2.09440000
H        2.35280000       1.09360000      -1.38610000
H        2.79410000      -0.27540000      -0.37720000
H        4.28150000       0.92970000      -2.64030000
H        4.56530000      -0.40360000      -3.70630000
