17
Properties=species:S:1:pos:R:3 gdb_92759=T pbc="F F F"
C       -0.34300000       1.47540000      -0.02350000
C        0.08170000       0.01720000       0.02000000
C        1.00700000      -0.43610000      -1.14600000
N        2.27370000      -0.80850000      -0.50080000
C        2.09370000      -0.64620000       0.74950000
O        0.90580000      -0.20920000       1.20090000
C        3.14760000      -0.91510000       1.80340000
N        4.30490000      -1.36300000       1.25750000
O        2.94470000      -0.74010000       2.98590000
H        0.53050000       2.12830000      -0.11770000
H       -0.99710000       1.64740000      -0.88470000
H       -0.88630000       1.75050000       0.88410000
H       -0.79270000      -0.63210000       0.12540000
H        0.60480000      -1.29250000      -1.69750000
H        1.17840000       0.36710000      -1.87210000
H        4.37560000      -1.47130000       0.25890000
H        5.08120000      -1.57130000       1.86150000
