16
Properties=species:S:1:pos:R:3 gdb_115036=T pbc="F F F"
O       -0.03000000       1.46760000      -0.08820000
C        0.03870000       0.05900000      -0.17240000
C       -1.31030000      -0.57570000       0.13670000
O       -2.26680000      -0.07950000      -0.84680000
C       -2.76830000      -1.17360000      -1.46400000
N       -2.40450000      -2.33350000      -1.11200000
C       -1.42600000      -2.13390000      -0.01050000
C       -0.16650000      -2.82420000      -0.27640000
C        0.86950000      -3.39960000      -0.47320000
H       -0.70970000       1.75160000      -0.70970000
H        0.38250000      -0.28090000      -1.16030000
H        0.77540000      -0.27210000       0.56490000
H       -1.66010000      -0.23360000       1.11400000
H       -3.48510000      -0.95690000      -2.24850000
H       -1.85940000      -2.56030000       0.90190000
H        1.78250000      -3.91120000      -0.65490000
