19
Properties=species:S:1:pos:R:3 gdb_76149=T pbc="F F F"
C        0.00020000       1.51830000       0.08700000
C       -0.00100000       0.00460000       0.00110000
C       -1.26340000      -0.65200000       0.52890000
C        0.67310000      -0.68750000      -1.16480000
N        1.41400000       0.08110000      -2.13040000
C        1.34150000      -0.70780000       0.22390000
O        2.49530000       0.05330000       0.34420000
C        1.38120000      -1.94510000       0.96420000
N        1.38330000      -2.94170000       1.55230000
H        0.97020000       1.94550000      -0.16670000
H       -0.75870000       1.94330000      -0.58050000
H       -0.24480000       1.83390000       1.10610000
H       -2.13330000      -0.32750000      -0.05340000
H       -1.21170000      -1.74250000       0.48190000
H       -1.43360000      -0.37360000       1.57420000
H        0.21580000      -1.61520000      -1.50160000
H        1.79570000      -0.51310000      -2.85690000
H        0.84560000       0.79510000      -2.57200000
H        2.69710000       0.33330000      -0.56890000
