23
Properties=species:S:1:pos:R:3 gdb_86541=T pbc="F F F"
C        0.12320000       1.55570000       0.22890000
C        0.02230000       0.05010000       0.06640000
C        1.03530000      -0.61530000      -0.83990000
C        1.13850000      -0.78390000       0.65710000
C       -1.36420000      -0.55980000       0.09440000
C       -2.33160000      -0.29210000       1.28650000
C       -3.49980000      -0.32280000       0.28330000
O       -4.51030000       0.62240000       0.54970000
C       -2.48450000      -0.04670000      -0.85980000
H        1.16860000       1.87760000       0.19400000
H       -0.40890000       2.08750000      -0.56770000
H       -0.29010000       1.89040000       1.18670000
H        0.71500000      -1.46880000      -1.42880000
H        1.76860000       0.01240000      -1.33530000
H        1.94160000      -0.27030000       1.17520000
H        0.88800000      -1.75120000       1.08040000
H       -1.26130000      -1.64310000      -0.03720000
H       -2.34130000      -0.99680000       2.12090000
H       -2.22300000       0.72400000       1.67610000
H       -3.91750000      -1.33690000       0.19700000
H       -5.18540000       0.54290000      -0.13180000
H       -2.41220000       1.03220000      -1.02480000
H       -2.61940000      -0.55190000      -1.81980000
