19
Properties=species:S:1:pos:R:3 gdb_22616=T pbc="F F F"
C       -0.23900000       1.56230000      -0.00110000
C        0.09610000       0.08060000       0.00960000
N        0.78900000      -0.50970000      -1.20810000
C        2.13760000       0.07210000      -1.24270000
C        1.90250000      -1.04460000      -0.28790000
C        2.52110000      -2.40490000      -0.39870000
C        1.18460000      -0.50370000       0.89620000
N        1.35270000      -0.73670000       2.12970000
O        0.34910000      -0.10450000       2.89500000
H        0.64450000       2.19550000      -0.11600000
H       -0.92980000       1.78390000      -0.82080000
H       -0.71960000       1.83060000       0.94350000
H       -0.82320000      -0.49580000       0.16440000
H        2.67880000      -0.17610000      -2.15150000
H        2.31020000       1.08210000      -0.88200000
H        2.70630000      -2.65750000      -1.44630000
H        3.47620000      -2.43410000       0.13640000
H        1.86900000      -3.16850000       0.03560000
H        0.58230000      -0.36840000       3.79140000
