20
Properties=species:S:1:pos:R:3 gdb_98694=T pbc="F F F"
C        0.01060000       1.56780000       0.76830000
O       -0.07300000       0.24070000       1.30220000
C        0.71600000      -0.66550000       0.69880000
O        1.45250000      -0.40470000      -0.22290000
C        0.59720000      -2.04500000       1.26490000
N       -0.00670000      -2.26030000       2.59210000
C       -0.68690000      -2.81920000       1.42190000
C       -2.03060000      -2.20170000       1.09400000
C       -0.60690000      -4.31530000       1.18310000
H       -0.29200000       1.58300000      -0.28210000
H       -0.66750000       2.17160000       1.37120000
H        1.03220000       1.94820000       0.84260000
H        1.46430000      -2.63600000       0.98280000
H        0.51740000      -2.97880000       3.08680000
H       -2.04270000      -1.14000000       1.33660000
H       -2.26620000      -2.32890000       0.03170000
H       -2.81800000      -2.69770000       1.67270000
H       -1.33630000      -4.84000000       1.81110000
H       -0.83250000      -4.56070000       0.14000000
H        0.38800000      -4.70910000       1.41440000
