23
Properties=species:S:1:pos:R:3 gdb_119924=T pbc="F F F"
C       -0.15760000       1.53530000      -0.00060000
C       -0.18010000       0.01800000       0.19890000
C        0.95350000      -0.48350000       1.10420000
C        0.94760000      -1.98930000       1.26050000
C        1.61110000      -2.71350000       2.40070000
C        2.35880000      -2.00750000       3.50940000
C        0.08270000      -2.68190000       2.31850000
C       -0.68800000      -1.91410000       3.25080000
C       -1.34790000      -1.27850000       4.03230000
H        0.78520000       1.86270000      -0.45370000
H       -0.97210000       1.86470000      -0.65330000
H       -0.26400000       2.06120000       0.95470000
H       -1.14000000      -0.28500000       0.63390000
H       -0.11250000      -0.48200000      -0.77670000
H        1.92030000      -0.17060000       0.68590000
H        0.86820000       0.00110000       2.08220000
H        0.96770000      -2.51890000       0.31010000
H        2.03430000      -3.68000000       2.13830000
H        1.84000000      -1.10770000       3.84580000
H        2.46570000      -2.66550000       4.37820000
H        3.36400000      -1.72090000       3.18150000
H       -0.39390000      -3.60790000       2.00980000
H       -1.93190000      -0.72310000       4.72320000
