12
Properties=species:S:1:pos:R:3 gdb_20767=T pbc="F F F"
C       -0.03560000       1.48310000       0.05260000
C       -0.01280000      -0.00850000       0.04290000
N       -0.03580000      -0.68110000      -1.07880000
O       -0.00440000      -2.03590000      -0.72340000
C        0.03670000      -2.13970000       0.59930000
C        0.03500000      -0.90050000       1.17090000
C        0.07090000      -0.56290000       2.54300000
N        0.10040000      -0.25980000       3.66010000
H        0.85550000       1.87930000       0.54910000
H       -0.07210000       1.86190000      -0.96980000
H       -0.90740000       1.85190000       0.60190000
H        0.06440000      -3.13640000       1.01170000
