18
Properties=species:S:1:pos:R:3 gdb_120181=T pbc="F F F"
C        0.02440000       1.34580000       0.15400000
O       -0.03250000      -0.06040000       0.17510000
C       -1.31830000      -0.56100000      -0.13500000
C       -1.23040000      -2.07370000      -0.09220000
C       -1.16510000      -2.76520000       1.30530000
N       -2.64250000      -2.39920000       1.45980000
C       -2.55040000      -2.89460000       0.01560000
C       -1.68890000      -4.04020000       0.60470000
O       -1.62350000      -5.22840000       0.65020000
H        1.04670000       1.63590000       0.40870000
H       -0.22210000       1.75040000      -0.84070000
H       -0.66620000       1.79430000       0.88550000
H       -2.06780000      -0.19070000       0.57600000
H       -1.62110000      -0.23820000      -1.14640000
H       -0.50540000      -2.44390000      -0.82050000
H       -0.44480000      -2.61670000       2.10620000
H       -3.12980000      -3.07770000       2.05160000
H       -3.41280000      -2.90310000      -0.64850000
