14
Properties=species:S:1:pos:R:3 gdb_123979=T pbc="F F F"
C       -0.00260000       1.50150000      -0.05920000
N        1.35740000       2.02210000       0.11670000
C        2.34690000       1.25510000       0.27230000
O        2.40170000      -0.11430000       0.31310000
C        1.17350000      -0.70560000       0.15720000
C        0.01620000       0.00930000      -0.02050000
N       -0.96010000      -0.92490000      -0.13320000
N       -0.49740000      -2.19000000      -0.03850000
C        0.81760000      -2.06540000       0.14080000
H       -0.63830000       1.93260000       0.72720000
H       -0.39770000       1.89060000      -1.00850000
H        3.34820000       1.65670000       0.40140000
H       -1.94570000      -0.78130000      -0.27330000
H        1.44240000      -2.93790000       0.24850000
