19
Properties=species:S:1:pos:R:3 gdb_116042=T pbc="F F F"
C       -0.07450000       1.36860000       0.07890000
O        0.04170000      -0.04310000       0.00480000
C        0.65980000      -0.61620000       1.09480000
O       -0.18040000      -0.45510000       2.23850000
C        0.48430000      -0.82720000       3.43410000
C        1.16750000      -2.16140000       3.31470000
C        1.34650000      -2.75150000       2.13450000
C        0.86580000      -2.11560000       0.84720000
O       -0.31270000      -2.74430000       0.36970000
H        0.91310000       1.84350000       0.18120000
H       -0.53090000       1.69550000      -0.85730000
H       -0.70420000       1.67600000       0.92040000
H        1.63490000      -0.13010000       1.30360000
H        1.21610000      -0.05030000       3.72470000
H       -0.28020000      -0.85030000       4.21890000
H        1.50680000      -2.62260000       4.23880000
H        1.80690000      -3.73200000       2.05980000
H        1.60990000      -2.24370000       0.05370000
H       -1.01660000      -2.49080000       0.97970000
