19
Properties=species:S:1:pos:R:3 gdb_76249=T pbc="F F F"
C       -0.50040000       1.35140000       0.18360000
C       -0.04580000      -0.08310000      -0.03670000
C        0.83450000      -0.42100000      -1.30130000
C        1.16700000       0.67200000      -2.30940000
C        1.93940000      -0.80450000      -0.32000000
N        3.12090000      -1.21330000      -0.45600000
N        1.10960000      -0.51060000       0.78900000
C        1.30990000      -0.65670000       2.13130000
O        2.34580000      -1.04840000       2.62450000
H        0.33500000       2.05310000       0.11770000
H       -1.24820000       1.63010000      -0.56560000
H       -0.96170000       1.46510000       1.16970000
H       -0.89340000      -0.76810000       0.07420000
H        0.44990000      -1.30310000      -1.82210000
H        1.56960000       1.56630000      -1.82610000
H        1.92670000       0.30420000      -3.00430000
H        0.28470000       0.96010000      -2.88920000
H        3.55640000      -1.36470000       0.45550000
H        0.41850000      -0.37750000       2.72670000
