15
Properties=species:S:1:pos:R:3 gdb_3000=T pbc="F F F"
C       -0.05290000       1.39230000       0.06500000
N        0.33320000       0.00390000      -0.07000000
C        0.69830000      -0.76090000       0.99590000
O        0.69400000      -0.38480000       2.15200000
N        1.11800000      -2.05900000       0.57530000
C        0.09220000      -3.11490000       0.52840000
C        1.12850000      -3.09600000       1.59490000
H        0.71020000       2.07010000      -0.33670000
H       -0.99980000       1.58940000      -0.44920000
H       -0.17370000       1.59660000       1.12940000
H        0.51100000      -0.37770000      -0.98420000
H       -0.92060000      -2.83990000       0.81210000
H        0.16630000      -3.80060000      -0.31080000
H        1.97130000      -3.77850000       1.54460000
H        0.82320000      -2.79080000       2.59080000
