23
Properties=species:S:1:pos:R:3 gdb_122299=T pbc="F F F"
C       -0.21690000       1.57510000       0.00280000
C       -0.00070000       0.06000000       0.03860000
C        0.65840000      -0.48530000      -1.23230000
C        0.88590000      -2.00490000      -1.19510000
C        1.53500000      -2.53790000      -2.44070000
C        0.78320000      -2.91960000      -3.70640000
C        1.66000000      -3.92630000      -3.02670000
O        3.02640000      -3.73920000      -3.40450000
C        3.01880000      -2.41940000      -2.79640000
H        0.73360000       2.10780000      -0.11380000
H       -0.86070000       1.86390000      -0.83560000
H       -0.68840000       1.93400000       0.92300000
H        0.61750000      -0.20210000       0.90770000
H       -0.96400000      -0.44520000       0.19080000
H        0.03990000      -0.23540000      -2.10460000
H        1.62020000       0.02270000      -1.38840000
H        1.50410000      -2.25800000      -0.32230000
H       -0.07630000      -2.51180000      -1.04410000
H       -0.28530000      -3.05720000      -3.56580000
H        1.07530000      -2.53080000      -4.67860000
H        1.35660000      -4.90830000      -2.68060000
H        3.32180000      -1.63390000      -3.49940000
H        3.67350000      -2.39990000      -1.91600000
