18
Properties=species:S:1:pos:R:3 gdb_48445=T pbc="F F F"
O        0.04460000      -0.22640000      -0.10130000
C       -0.02300000       0.97280000      -0.02950000
C        1.16620000       1.91230000       0.01370000
C        1.37590000       2.53450000       1.42570000
O        2.64590000       1.88690000       1.56840000
C        2.52930000       1.23600000       0.28140000
C        1.09320000       2.85090000      -1.17660000
C        0.39560000       4.16070000      -1.09900000
N        1.85880000       4.10010000      -1.23630000
H       -1.00680000       1.49410000       0.01180000
H        1.45710000       3.62930000       1.46630000
H        0.65270000       2.21550000       2.18800000
H        2.48270000       0.14640000       0.36760000
H        3.33760000       1.52750000      -0.39790000
H        1.07860000       2.32340000      -2.12950000
H       -0.13300000       4.55120000      -1.96330000
H       -0.02720000       4.45590000      -0.14140000
H        2.31240000       4.29330000      -0.34610000
