17
Properties=species:S:1:pos:R:3 gdb_26530=T pbc="F F F"
C        0.07660000       1.54650000       0.02850000
C       -0.00160000       0.04870000       0.00750000
C       -1.17350000      -0.65080000       0.06110000
N       -2.42620000      -0.05540000       0.17510000
C       -1.19250000      -2.12620000       0.06260000
O       -2.26920000      -2.73180000       0.11440000
C        0.10900000      -2.74960000      -0.01160000
C        1.24380000      -2.00370000      -0.08030000
N        1.19100000      -0.64660000      -0.07430000
H        1.02460000       1.89260000       0.45480000
H       -0.01310000       1.98610000      -0.97370000
H       -0.73340000       1.95120000       0.64200000
H       -2.59820000       0.73590000      -0.42780000
H       -3.13250000      -0.78110000       0.07800000
H        0.16120000      -3.83070000      -0.02720000
H        2.23570000      -2.43490000      -0.14350000
H        2.04720000      -0.11950000      -0.11510000
