21
Properties=species:S:1:pos:R:3 gdb_39222=T pbc="F F F"
C       -0.06180000       1.48800000       0.06280000
C        1.30260000       0.82810000       0.02060000
C        2.26030000       0.41640000       1.12640000
C        2.38470000      -1.14470000       1.11570000
C        1.00280000      -1.87300000       0.92040000
C       -0.10360000      -0.85650000       1.27220000
C        0.02260000      -0.00450000       0.00780000
C        0.03490000      -1.05020000      -1.07240000
C        0.64400000      -2.12440000      -0.55600000
H       -0.43070000       1.91750000       0.99080000
H       -0.34690000       2.05190000      -0.82050000
H        1.77390000       0.90010000      -0.95700000
H        3.24950000       0.86650000       0.99060000
H        1.90980000       0.75770000       2.10540000
H        3.07270000      -1.44820000       0.31920000
H        2.83820000      -1.47140000       2.05780000
H        0.97660000      -2.78920000       1.51590000
H       -1.08620000      -1.33620000       1.31660000
H        0.05880000      -0.31360000       2.20600000
H       -0.28870000      -0.90530000      -2.09600000
H        0.89800000      -3.03520000      -1.08510000
