23
Properties=species:S:1:pos:R:3 gdb_96556=T pbc="F F F"
C       -0.19060000       1.58370000       0.22390000
C       -0.06380000       0.06710000       0.12900000
O        0.44920000      -0.21700000      -1.17760000
C        0.14740000      -1.49840000      -1.71230000
C        0.78980000      -2.68250000      -0.98480000
C        0.21730000      -2.93250000       0.41980000
C        0.71650000      -1.99230000       1.53450000
C        0.91260000      -0.49780000       1.19110000
O        2.24500000      -0.23400000       0.76920000
H        0.79980000       2.04510000       0.17760000
H       -0.79660000       1.96870000      -0.59990000
H       -0.66010000       1.86960000       1.16980000
H       -1.05450000      -0.39770000       0.24140000
H       -0.94630000      -1.63570000      -1.73800000
H        0.49950000      -1.45950000      -2.74830000
H        0.61240000      -3.56880000      -1.60740000
H        1.87680000      -2.54280000      -0.94140000
H       -0.87800000      -2.88070000       0.35420000
H        0.44180000      -3.96170000       0.72200000
H        0.02150000      -2.07070000       2.38020000
H        1.68830000      -2.33800000       1.90230000
H        0.76730000       0.07080000       2.11870000
H        2.20620000      -0.19780000      -0.19680000
