25
Properties=species:S:1:pos:R:3 gdb_102546=T pbc="F F F"
C       -0.47960000       1.33010000      -0.46250000
C       -0.21090000      -0.17440000      -0.35880000
C        0.94560000      -0.67390000      -1.24760000
C        2.31250000      -0.01110000      -0.94900000
C        2.81430000      -0.08270000       0.49880000
C        1.01060000      -2.19570000      -1.23780000
O        1.19120000      -2.68440000       0.07190000
C        0.14830000      -2.98070000      -2.19060000
C        1.65820000      -2.92210000      -2.38570000
H        0.36520000       1.92430000      -0.10020000
H       -0.67350000       1.63010000      -1.49910000
H       -1.35520000       1.61080000       0.13150000
H       -0.01370000      -0.44990000       0.68170000
H       -1.11780000      -0.72120000      -0.64540000
H        0.69940000      -0.40240000      -2.28400000
H        3.05790000      -0.47080000      -1.60970000
H        2.25530000       1.04080000      -1.25400000
H        2.90140000      -1.11600000       0.83920000
H        3.79600000       0.39550000       0.58200000
H        2.14030000       0.43720000       1.18730000
H        1.15420000      -3.64530000       0.05250000
H       -0.27690000      -3.91620000      -1.83790000
H       -0.48590000      -2.44730000      -2.89110000
H        2.04990000      -2.34820000      -3.21930000
H        2.22970000      -3.81740000      -2.15960000
