19
Properties=species:S:1:pos:R:3 gdb_91569=T pbc="F F F"
O        0.11730000       1.38630000      -0.02730000
C        0.10290000      -0.01450000       0.12780000
C        0.18000000      -0.61400000       1.57780000
C       -1.19270000      -1.25190000       1.34740000
C       -2.19700000      -0.17690000       1.03530000
C       -1.27740000      -0.64160000      -0.05850000
C       -1.77700000      -1.25290000      -1.34890000
C       -2.16600000      -0.26280000      -2.35120000
C       -2.48190000       0.55720000      -3.17070000
H        1.01840000       1.69630000       0.10850000
H        0.84130000      -0.49290000      -0.53140000
H        0.99620000      -1.33060000       1.69620000
H        0.22800000       0.12500000       2.38430000
H       -1.48910000      -2.24480000       1.66370000
H       -3.22490000      -0.51040000       0.93230000
H       -2.08720000       0.81850000       1.45570000
H       -1.00270000      -1.90850000      -1.77120000
H       -2.63440000      -1.90290000      -1.12920000
H       -2.75950000       1.28620000      -3.89070000
