20
Properties=species:S:1:pos:R:3 gdb_11456=T pbc="F F F"
C       -0.11680000       1.38960000       0.00080000
O        0.13670000       0.00750000       0.06360000
C        0.70090000      -0.53330000      -1.12660000
C        1.22670000      -1.95270000      -0.82150000
C        0.85350000      -2.81490000      -2.04860000
C       -0.21130000      -1.99830000      -2.75280000
C       -1.00540000      -2.56730000      -3.88580000
C       -0.28520000      -0.76470000      -2.24940000
H        0.79610000       1.96220000      -0.23110000
H       -0.87940000       1.64700000      -0.75010000
H       -0.48350000       1.69740000       0.98370000
H        1.51230000       0.14090000      -1.45590000
H        2.29420000      -1.96660000      -0.59100000
H        0.69160000      -2.30090000       0.06650000
H        1.71450000      -2.97170000      -2.71370000
H        0.49820000      -3.81610000      -1.77510000
H       -1.56440000      -3.45610000      -3.56570000
H       -1.71790000      -1.84240000      -4.28830000
H       -0.35050000      -2.89290000      -4.70430000
H       -0.94770000       0.01250000      -2.61560000
