17
Properties=species:S:1:pos:R:3 gdb_19663=T pbc="F F F"
O        0.04220000       1.49890000      -0.08190000
C        0.01430000       0.10040000       0.02110000
C        0.12140000      -0.60930000       1.40110000
C       -0.91590000       0.16690000       2.23560000
C       -2.10910000      -0.31120000       1.38270000
C       -1.97910000      -1.83170000       1.58000000
N       -0.71040000      -1.75620000       0.77390000
C       -1.34690000      -0.57500000       0.02180000
H        0.96020000       1.78390000      -0.12720000
H        0.66230000      -0.38890000      -0.71590000
H        1.07440000      -0.89040000       1.84780000
H       -0.98670000      -0.15420000       3.27810000
H       -0.74190000       1.24320000       2.19460000
H       -3.05310000       0.23030000       1.44770000
H       -1.88530000      -2.22610000       2.59760000
H       -2.70470000      -2.42650000       1.01750000
H       -1.92800000      -0.78550000      -0.87640000
