19
Properties=species:S:1:pos:R:3 gdb_64861=T pbc="F F F"
C       -0.11380000       1.63630000       0.01910000
C       -0.00760000       0.11570000       0.02760000
C        1.13960000      -0.45250000      -0.87610000
C        2.05450000      -0.57620000       0.38220000
C        0.76780000      -0.46680000       1.25830000
C        2.88990000      -1.75020000       0.51990000
C        3.56250000      -2.74130000       0.63040000
C       -1.34410000      -0.54430000      -0.20990000
O       -2.38600000       0.03250000      -0.38770000
H        0.86160000       2.10090000       0.19330000
H       -0.49800000       1.99190000      -0.94100000
H       -0.80260000       1.98030000       0.79580000
H        0.89600000      -1.43820000      -1.28200000
H        1.48410000       0.19300000      -1.68650000
H        2.66380000       0.32610000       0.49440000
H        0.81640000       0.16730000       2.14590000
H        0.40340000      -1.45710000       1.54500000
H        4.16290000      -3.61150000       0.72920000
H       -1.30020000      -1.66020000      -0.20970000
