19
Properties=species:S:1:pos:R:3 gdb_37985=T pbc="F F F"
C       -0.03370000       1.33000000       0.16680000
C        1.33270000       1.99540000       0.03680000
C        2.10190000       1.71760000      -1.24960000
C        1.44770000       1.40340000      -2.62530000
O        2.77140000       0.92080000      -3.08190000
C        2.56810000       0.31250000      -1.74310000
C        1.13440000      -0.06730000      -2.20110000
C        0.02220000      -0.54160000      -1.27380000
O        0.05050000      -0.07690000       0.05780000
H       -0.45790000       1.54400000       1.15370000
H       -0.73380000       1.73100000      -0.58530000
H        1.19340000       3.08080000       0.12810000
H        1.95520000       1.69370000       0.88880000
H        2.91780000       2.43500000      -1.37070000
H        0.89730000       2.05850000      -3.30320000
H        3.36540000      -0.32420000      -1.35690000
H        1.16040000      -0.71940000      -3.08010000
H       -0.95060000      -0.30480000      -1.74130000
H        0.08410000      -1.63260000      -1.19870000
