20
Properties=species:S:1:pos:R:3 gdb_107038=T pbc="F F F"
C       -0.40740000       1.46490000      -0.18170000
C        0.12730000       0.04670000       0.06230000
C        0.92940000      -0.49850000      -1.09530000
N        0.22040000      -0.97160000      -2.33230000
C        0.98230000      -1.92490000      -1.48710000
C        2.35370000      -2.22130000      -2.10710000
O        2.26190000      -2.66080000      -3.45210000
C        3.06380000      -0.87820000      -1.97830000
C        2.28230000       0.05970000      -1.44420000
H        0.40770000       2.17790000      -0.34100000
H       -1.05080000       1.49670000      -1.06680000
H       -0.99130000       1.81420000       0.67490000
H        0.75400000       0.03870000       0.96300000
H       -0.71070000      -0.63240000       0.26480000
H       -0.77160000      -1.07970000      -2.12190000
H        0.44130000      -2.69820000      -0.95260000
H        2.87670000      -3.01900000      -1.56730000
H        1.62850000      -2.05510000      -3.86320000
H        4.06230000      -0.73020000      -2.37350000
H        2.54540000       1.10130000      -1.29820000
