16
Properties=species:S:1:pos:R:3 gdb_8827=T pbc="F F F"
C        0.79980000       1.37620000      -0.01690000
O        0.88320000      -0.04860000      -0.15940000
C        0.02350000      -0.58960000      -1.03830000
O       -0.80010000       0.03420000      -1.65430000
C        0.23850000      -2.10790000      -1.13770000
C       -0.98070000      -2.78990000      -1.77940000
C        1.47140000      -2.37330000      -1.87780000
C        2.46800000      -2.59630000      -2.51070000
H        1.00550000       1.86950000      -0.97000000
H       -0.19550000       1.67090000       0.32470000
H        1.55380000       1.64400000       0.72290000
H        0.37260000      -2.47140000      -0.11120000
H       -1.87540000      -2.60930000      -1.17820000
H       -1.15530000      -2.38900000      -2.77900000
H       -0.81160000      -3.86650000      -1.85160000
H        3.35450000      -2.79420000      -3.06080000
