17
Properties=species:S:1:pos:R:3 gdb_90648=T pbc="F F F"
C       -0.27730000       1.29170000      -0.03250000
N        0.10480000      -0.09960000       0.12360000
C        1.12210000      -0.63170000      -0.84180000
C        1.96970000      -1.15290000       0.32060000
C        1.00370000      -0.42510000       1.24260000
C        1.05840000      -1.93920000       1.26950000
O       -0.02150000      -2.68290000       0.82000000
C        1.73480000      -2.52320000       2.40360000
N        2.29930000      -2.97080000       3.30800000
H        0.58440000       1.97940000      -0.08270000
H       -0.85930000       1.40300000      -0.95220000
H       -0.91140000       1.59380000       0.80670000
H        0.73030000      -1.36190000      -1.55600000
H        1.63270000       0.17760000      -1.37520000
H        3.04650000      -1.24890000       0.34440000
H        1.13500000       0.21910000       2.10400000
H       -0.65990000      -2.01500000       0.51190000
