11
Properties=species:S:1:pos:R:3 gdb_3914=T pbc="F F F"
O       -0.07990000      -0.03780000       0.00050000
C       -0.01840000       1.17180000       0.00920000
C        1.22220000       1.93680000       0.00180000
C        1.36370000       3.31790000       0.01100000
N        2.68660000       3.56130000      -0.00150000
N        3.44200000       2.43480000      -0.01830000
C        2.55830000       1.45100000      -0.01600000
H       -0.94340000       1.79190000       0.02380000
H        0.63310000       4.11190000       0.02500000
H        3.15040000       4.45470000       0.00020000
H        2.88160000       0.42150000      -0.02730000
