20
Properties=species:S:1:pos:R:3 gdb_14174=T pbc="F F F"
C       -0.04030000       1.55880000       0.01520000
C        0.02050000       0.04640000      -0.01590000
C       -1.19580000      -0.64470000       0.57390000
C        0.68640000      -0.69670000      -1.17440000
C        1.63070000       0.05290000      -2.11400000
C        2.91730000       0.18420000      -1.26990000
O        2.50800000       0.12320000       0.10100000
C        1.34430000      -0.65960000       0.18130000
H        0.92320000       2.01160000      -0.22480000
H       -0.79120000       1.94180000      -0.68580000
H       -0.31930000       1.90360000       1.01740000
H       -2.10100000      -0.40420000       0.00380000
H       -1.08270000      -1.73380000       0.56940000
H       -1.36090000      -0.33020000       1.61080000
H        0.20180000      -1.59550000      -1.53930000
H        1.80840000      -0.51360000      -3.03210000
H        1.24040000       1.03320000      -2.40470000
H        3.61150000      -0.64120000      -1.48960000
H        3.44920000       1.12890000      -1.41590000
H        1.42570000      -1.52250000       0.83770000
