20
Properties=species:S:1:pos:R:3 gdb_115650=T pbc="F F F"
C        0.09750000       1.38500000       0.03940000
O       -0.27920000       0.06850000      -0.30000000
C        0.58980000      -0.54420000      -1.21240000
C        1.88590000      -1.16930000      -0.61990000
N        1.26680000      -2.50940000      -0.74550000
C        0.14880000      -1.99160000      -1.54080000
C       -1.29590000      -2.46440000      -1.30900000
O       -1.50170000      -2.65430000      -2.72970000
C       -0.11330000      -2.40910000      -3.00620000
H        1.07730000       1.41950000       0.53810000
H        0.13890000       2.03400000      -0.84930000
H       -0.65940000       1.77080000       0.72610000
H        0.74640000       0.10220000      -2.08840000
H        2.77550000      -1.00090000      -1.24030000
H        2.11480000      -0.88680000       0.41350000
H        1.83060000      -3.22600000      -1.18830000
H       -1.35560000      -3.40690000      -0.74950000
H       -1.98290000      -1.72870000      -0.88160000
H        0.03280000      -1.64370000      -3.77980000
H        0.41960000      -3.32510000      -3.30580000
