19
Properties=species:S:1:pos:R:3 gdb_58968=T pbc="F F F"
C       -0.02050000       1.54080000       0.05960000
C        0.03310000       0.01570000       0.13310000
O        0.69610000      -0.45750000       1.30010000
C       -1.35030000      -0.59590000       0.02350000
C       -2.37170000      -0.51950000       1.17730000
O       -2.70140000      -1.92210000       1.01820000
C       -1.72780000      -2.09060000      -0.02670000
C       -2.28130000      -1.77350000      -1.42300000
O       -1.96770000      -0.36170000      -1.26280000
H        0.98930000       1.95840000       0.09190000
H       -0.50960000       1.86070000      -0.86430000
H       -0.59040000       1.95320000       0.90250000
H        0.62450000      -0.36300000      -0.70890000
H        0.38920000       0.06150000       2.05090000
H       -1.95400000      -0.32670000       2.17410000
H       -3.22470000       0.14230000       0.99440000
H       -1.07030000      -2.94670000       0.12800000
H       -1.72130000      -2.20900000      -2.26000000
H       -3.35300000      -1.95660000      -1.55090000
