18
Properties=species:S:1:pos:R:3 gdb_33897=T pbc="F F F"
C        0.04330000      -1.21300000      -0.10660000
C        0.04990000      -0.01240000      -0.01070000
C        0.03650000       1.39990000       0.12840000
N        0.21780000       2.30050000      -1.04960000
C        1.15930000       2.40570000       0.07690000
C        0.49480000       3.26020000       1.17760000
C       -0.50270000       4.37110000       0.73150000
C       -1.67410000       3.33710000       0.77610000
C       -0.67820000       2.23130000       1.23060000
H        0.04090000      -2.27120000      -0.19220000
H        0.66760000       1.74350000      -1.77530000
H        2.21870000       2.23560000      -0.07640000
H        1.12470000       3.44240000       2.04790000
H       -0.59940000       5.17520000       1.46480000
H       -0.30230000       4.80360000      -0.24970000
H       -2.43230000       3.56260000       1.52970000
H       -2.16390000       3.15000000      -0.18030000
H       -0.89590000       1.66340000       2.13410000
