18
Properties=species:S:1:pos:R:3 gdb_84317=T pbc="F F F"
C        0.03240000       1.42930000       0.08080000
N       -0.10050000      -0.01220000       0.00210000
C        0.00160000      -0.66900000      -1.18230000
C        0.06340000      -2.01910000      -1.33200000
C        0.02680000      -2.91900000      -0.19500000
O       -0.08740000      -4.13260000      -0.27780000
C        0.10020000      -2.25270000       1.15570000
C        1.33260000      -1.45120000       1.53900000
C        0.04100000      -0.74070000       1.23010000
H        1.04610000       1.73600000       0.37580000
H       -0.19910000       1.87340000      -0.88950000
H       -0.67090000       1.83090000       0.81880000
H        0.00730000      -0.01740000      -2.05170000
H        0.07670000      -2.44960000      -2.32470000
H       -0.38000000      -2.82190000       1.94340000
H        1.65660000      -1.49380000       2.57210000
H        2.13070000      -1.38520000       0.80770000
H       -0.50230000      -0.28340000       2.05180000
