15
Properties=species:S:1:pos:R:3 gdb_133703=T pbc="F F F"
N       -0.31070000       1.37550000      -0.18310000
C       -0.08140000      -0.03550000      -0.01900000
C       -0.41590000      -0.63060000       1.33550000
C       -1.34710000      -0.85390000       0.17120000
O       -2.56110000      -0.19570000       0.08930000
C        1.07290000      -0.61450000      -0.79020000
F        2.25000000      -0.11320000      -0.37260000
F        1.13980000      -1.94910000      -0.67490000
F        0.97210000      -0.32270000      -2.10140000
H        0.38570000       1.92610000       0.30890000
H       -0.26900000       1.62710000      -1.16640000
H        0.18840000      -1.46030000       1.68310000
H       -0.73100000       0.07230000       2.09850000
H       -1.38560000      -1.84650000      -0.26310000
H       -2.34560000       0.75070000       0.09820000
