17
Properties=species:S:1:pos:R:3 gdb_121611=T pbc="F F F"
N       -0.64460000       0.21170000       0.62030000
H       -2.31780000      -0.18760000       1.12810000
H        0.11140000      -0.36830000       0.96680000
H       -0.58120000       0.21200000      -0.39290000
C       -0.55940000       1.58410000       1.14800000
C       -1.92970000       2.26890000       1.07120000
N       -2.89440000       1.87890000       2.11360000
C       -3.58040000       0.73780000       2.32050000
O       -3.18460000      -0.30180000       1.60790000
C       -5.39700000       1.52230000       4.26530000
O       -5.95520000       0.51920000       4.44420000
O       -4.93910000       2.59810000       4.20540000
H       -0.24030000       1.53380000       2.19300000
H        0.17590000       2.19520000       0.60550000
H       -1.79180000       3.35030000       1.15680000
H       -2.36230000       2.07970000       0.07820000
H       -3.24820000       2.64020000       2.67380000
