15
Properties=species:S:1:pos:R:3 gdb_67067=T pbc="F F F"
O        0.09670000       1.36780000      -0.04050000
C        0.13940000      -0.03420000      -0.13890000
C       -0.08980000      -0.66160000      -1.56790000
C       -0.55040000      -1.94930000      -0.85390000
C       -1.16520000      -0.77270000      -0.06580000
C       -1.60270000      -0.11770000      -1.41180000
O       -1.16370000      -0.84600000       1.39340000
C        0.21690000      -0.57090000       1.35860000
O        0.97990000      -0.61780000       2.26100000
H        0.96380000       1.66330000       0.25490000
H        0.51690000      -0.58160000      -2.46980000
H       -1.24680000      -2.58710000      -1.39890000
H        0.22130000      -2.52630000      -0.33900000
H       -1.72700000       0.96170000      -1.41960000
H       -2.35500000      -0.64130000      -2.00480000
