17
Properties=species:S:1:pos:R:3 gdb_58145=T pbc="F F F"
C        0.79870000      -0.66510000      -1.18440000
C       -0.03780000       0.17990000      -0.22410000
O       -0.06840000       1.54300000      -0.61830000
C       -1.49930000      -0.31870000      -0.07640000
O       -2.22960000      -0.18080000      -1.29000000
C       -1.59550000      -1.74540000       0.45920000
O       -0.81840000      -2.23120000       1.23520000
C       -2.21280000       0.62500000       0.91800000
O       -1.92460000       0.70850000       2.07670000
H        1.79110000      -0.21830000      -1.27980000
H        0.91110000      -1.69050000      -0.82280000
H        0.35500000      -0.68850000      -2.18800000
H        0.40390000       0.15740000       0.77540000
H       -0.60290000       1.58800000      -1.42110000
H       -1.90290000      -0.82340000      -1.92880000
H       -2.47250000      -2.30440000       0.05920000
H       -3.02390000       1.21350000       0.44060000
