16
Properties=species:S:1:pos:R:3 gdb_98823=T pbc="F F F"
O        0.15410000       1.32530000      -0.29510000
C       -0.01340000      -0.06010000      -0.26350000
C       -1.42780000      -0.44390000       0.13310000
O       -2.24660000       0.41850000       0.37700000
C       -1.75490000      -1.91480000       0.13540000
C       -3.21810000      -2.32410000       0.43560000
N       -3.29340000      -2.83170000      -0.94240000
C       -2.02690000      -2.48240000      -1.30930000
O       -1.39030000      -2.56240000      -2.32220000
H       -0.70900000       1.69360000      -0.05020000
H        0.18850000      -0.52310000      -1.24470000
H        0.68490000      -0.53130000       0.44910000
H       -0.98420000      -2.49240000       0.65110000
H       -3.33730000      -3.09570000       1.20070000
H       -3.87280000      -1.47410000       0.63730000
H       -4.05200000      -3.22160000      -1.48160000
