20
Properties=species:S:1:pos:R:3 gdb_85666=T pbc="F F F"
C       -0.11270000       1.49600000      -0.01280000
C       -0.05130000      -0.03250000      -0.02860000
C       -1.41820000      -0.63760000      -0.32620000
C        1.14190000      -0.56780000      -0.87830000
O        1.54010000       0.28830000      -1.91800000
C        2.01380000      -0.65780000       0.40060000
C        0.69570000      -0.62700000       1.23240000
C        0.67940000       0.12240000       2.47470000
N        0.66600000       0.73300000       3.45710000
H        0.85540000       1.95020000       0.21150000
H       -0.43040000       1.86650000      -0.99070000
H       -0.82790000       1.83890000       0.74090000
H       -1.77790000      -0.30710000      -1.30670000
H       -1.38140000      -1.73230000      -0.33260000
H       -2.15740000      -0.32910000       0.42130000
H        0.91000000      -1.57330000      -1.25980000
H        2.23800000      -0.14100000      -2.42250000
H        2.66090000      -1.52670000       0.53340000
H        2.59490000       0.25570000       0.53940000
H        0.34090000      -1.64220000       1.43390000
