22
Properties=species:S:1:pos:R:3 gdb_77255=T pbc="F F F"
C        0.53360000       0.80340000      -1.96700000
N        0.44510000      -0.25280000      -0.96900000
C        1.56120000      -0.53050000      -0.06070000
C        2.88110000       0.22560000      -0.09120000
C        3.78400000      -0.28140000      -1.19900000
O        4.32960000       0.41680000      -2.01340000
C        0.27680000       0.04710000       0.45980000
C        0.20850000       1.47720000       0.96690000
C       -0.69420000      -0.88300000       1.16610000
H        1.08390000       1.70620000      -1.66890000
H        1.01820000       0.40090000      -2.86210000
H       -0.48120000       1.10600000      -2.24460000
H        1.71230000      -1.60070000       0.09730000
H        2.77760000       1.30520000      -0.20190000
H        3.39990000       0.03580000       0.86060000
H        3.91540000      -1.38890000      -1.21210000
H        0.91100000       2.15290000       0.47810000
H       -0.79960000       1.88120000       0.81890000
H        0.41490000       1.50500000       2.04230000
H       -0.47690000      -0.93840000       2.23900000
H       -1.72420000      -0.52570000       1.05160000
H       -0.63870000      -1.88890000       0.74390000
