18
Properties=species:S:1:pos:R:3 gdb_33215=T pbc="F F F"
O       -0.08490000       1.46490000       0.27750000
C        0.00590000       0.05970000       0.11140000
C       -1.41160000      -0.49510000       0.06340000
C       -1.43620000      -2.02410000      -0.11260000
C       -2.80880000      -2.59460000      -0.14470000
C       -3.55840000      -3.25060000      -1.06480000
N       -4.80850000      -3.54740000      -0.53030000
C       -4.75570000      -3.06430000       0.66540000
O       -3.58190000      -2.46960000       0.98490000
H        0.80650000       1.82410000       0.30750000
H        0.53920000      -0.20010000      -0.81850000
H        0.55950000      -0.40740000       0.94310000
H       -1.93050000      -0.21970000       0.98740000
H       -1.95320000      -0.01670000      -0.75980000
H       -0.93850000      -2.30480000      -1.04750000
H       -0.86410000      -2.49370000       0.69930000
H       -3.29090000      -3.53240000      -2.07100000
H       -5.51670000      -3.07530000       1.42970000
