16
Properties=species:S:1:pos:R:3 gdb_64540=T pbc="F F F"
O        0.22310000       1.60120000       0.36290000
C        0.03040000       0.26240000       0.08170000
C        1.15450000      -0.23120000      -0.78600000
O        1.26760000      -1.35860000      -1.19900000
C       -0.48310000      -0.82130000       1.02210000
C       -1.69220000      -0.38790000       1.88940000
N       -2.00980000       1.04610000       1.62320000
C       -2.46180000      -0.02350000       0.68520000
C       -1.28390000      -0.44270000      -0.23070000
H       -0.53710000       1.84910000       0.92350000
H        1.89040000       0.56800000      -1.01510000
H        0.08080000      -1.72890000       1.19460000
H       -2.00250000      -0.85730000       2.81310000
H       -2.80380000       1.30100000       2.20800000
H       -3.51130000      -0.14290000       0.45240000
H       -1.40820000      -1.02510000      -1.13450000
