16
Properties=species:S:1:pos:R:3 gdb_20867=T pbc="F F F"
C       -0.12040000       1.57710000       0.04480000
C       -0.07380000       0.04850000       0.01580000
C        0.81470000      -0.52910000       1.13580000
C        0.86070000      -2.01790000       1.13780000
C        1.85300000      -2.92790000       0.92960000
N        1.29120000      -4.17620000       1.04540000
N        0.06550000      -4.09240000       1.30040000
O       -0.26680000      -2.69110000       1.37140000
H        0.87830000       2.00920000      -0.08260000
H       -0.75540000       1.96470000      -0.75700000
H       -0.52230000       1.94390000       0.99550000
H       -1.08370000      -0.36220000       0.11950000
H        0.30420000      -0.29810000      -0.95320000
H        1.83840000      -0.15330000       1.03680000
H        0.44150000      -0.18430000       2.10830000
H        2.89800000      -2.78660000       0.71400000
