15
Properties=species:S:1:pos:R:3 gdb_128256=T pbc="F F F"
C        0.00420000       1.36180000       0.25810000
N       -0.02790000      -0.02210000      -0.17650000
C       -1.16200000      -0.77370000      -0.04570000
N       -1.21740000      -2.09290000      -0.07040000
C       -2.56310000      -2.34100000       0.04330000
N       -3.33310000      -1.26490000       0.14220000
N       -2.41050000      -0.26010000       0.08720000
C       -3.10270000      -3.65430000       0.05850000
C       -3.55010000      -4.77000000       0.07140000
H        1.00990000       1.75570000       0.10310000
H       -0.67630000       1.96850000      -0.35080000
H       -0.26360000       1.49500000       1.31690000
H        0.80880000      -0.56510000      -0.02790000
H       -2.71610000       0.69650000       0.12820000
H       -3.94700000      -5.75460000       0.08100000
