16
Properties=species:S:1:pos:R:3 gdb_133749=T pbc="F F F"
O        0.44250000       0.37690000       0.90850000
C       -0.12880000       0.30230000      -0.38690000
C       -1.51100000      -0.37110000      -0.39550000
O       -2.07890000      -0.31560000      -1.69310000
C       -1.43000000      -1.78870000       0.17810000
C       -2.77380000      -2.46140000       0.37110000
F       -3.37440000      -2.74630000      -0.79340000
F       -2.63430000      -3.62090000       1.03730000
F       -3.61610000      -1.69240000       1.08170000
H       -0.04200000       1.04010000       1.41050000
H       -0.22390000       1.28900000      -0.85990000
H        0.57020000      -0.28720000      -0.99360000
H       -2.18830000       0.21870000       0.23460000
H       -1.64030000      -0.96920000      -2.24860000
H       -0.82680000      -2.43440000      -0.47180000
H       -0.92900000      -1.74620000       1.14850000
