21
Properties=species:S:1:pos:R:3 gdb_112511=T pbc="F F F"
C        0.45000000       1.16040000       0.52390000
C        0.39880000      -0.31530000       0.11700000
C        0.59520000      -0.52330000      -1.38570000
C        2.06570000      -0.41690000      -1.88670000
C        2.15680000      -1.97830000      -1.98340000
C        2.82650000      -2.62610000      -0.87400000
C        3.31960000      -3.18400000       0.07310000
C        0.58440000      -2.01560000      -1.85410000
O       -0.00620000      -2.99950000      -1.05920000
H        1.40860000       1.61820000       0.25630000
H       -0.33940000       1.73430000       0.02580000
H        0.31750000       1.27850000       1.60390000
H        1.16180000      -0.87370000       0.67370000
H       -0.56700000      -0.74760000       0.40400000
H       -0.11590000       0.10920000      -1.92810000
H        2.15790000       0.05050000      -2.86940000
H        2.77910000       0.05200000      -1.20640000
H        2.54590000      -2.36850000      -2.92820000
H        3.79460000      -3.66850000       0.89030000
H        0.13560000      -2.10810000      -2.84730000
H        0.58380000      -3.16870000      -0.31300000
