17
Properties=species:S:1:pos:R:3 gdb_52527=T pbc="F F F"
C       -0.00440000       1.42220000      -0.00990000
C        0.01770000      -0.02950000       0.02090000
C        0.01700000      -1.23640000       0.04270000
C        0.02540000      -2.67880000       0.08100000
O       -1.02150000      -3.32320000       0.12530000
C        1.34480000      -3.33290000       0.02690000
C        1.50380000      -4.67960000       0.74800000
C        1.38910000      -4.69460000      -0.72870000
O        0.27820000      -5.17140000      -1.38540000
H        0.99310000       1.84380000       0.15080000
H       -0.37130000       1.78030000      -0.97820000
H       -0.67200000       1.81790000       0.76300000
H        2.20770000      -2.68210000      -0.03970000
H        2.46510000      -4.86640000       1.21370000
H        0.63600000      -5.00460000       1.31270000
H        2.28790000      -4.85810000      -1.31450000
H       -0.50140000      -4.82920000      -0.91200000
