18
Properties=species:S:1:pos:R:3 gdb_22822=T pbc="F F F"
C       -0.13070000       1.52190000       0.10990000
C        0.05030000       0.00100000       0.02690000
O        0.72020000      -0.40620000      -1.16630000
C        2.08140000      -0.03720000      -1.24790000
C        2.84800000      -0.28560000       0.01640000
C        2.23500000      -0.56220000       1.17330000
C        0.77880000      -0.55200000       1.23910000
N        0.04760000      -0.91860000       2.22690000
O        0.80590000      -1.37730000       3.31310000
H        0.82380000       2.03810000       0.25090000
H       -0.59820000       1.89150000      -0.80750000
H       -0.77370000       1.76910000       0.95890000
H       -0.93310000      -0.47140000      -0.03260000
H        2.50320000      -0.63220000      -2.06710000
H        2.19630000       1.02140000      -1.54610000
H        3.93160000      -0.23300000      -0.04790000
H        2.78630000      -0.77890000       2.07920000
H        0.12390000      -1.59920000       3.95530000
