19
Properties=species:S:1:pos:R:3 gdb_28488=T pbc="F F F"
C       -0.05350000       1.51660000      -0.02340000
C        0.00930000       0.01090000       0.01240000
N        0.11810000      -0.61820000      -1.16580000
C        0.17230000      -1.94550000      -1.16700000
C        0.13120000      -2.74490000      -0.01810000
N        0.26430000      -4.13530000      -0.10280000
C        0.01940000      -2.09430000       1.22150000
C       -0.01820000      -2.88350000       2.50210000
C       -0.04290000      -0.70350000       1.20970000
H        0.84530000       1.93000000      -0.49290000
H       -0.90760000       1.85380000      -0.62010000
H       -0.14460000       1.94030000       0.98020000
H        0.25810000      -2.42540000      -2.14260000
H        0.08140000      -4.50670000      -1.02490000
H       -0.24640000      -4.65360000       0.59810000
H        0.85150000      -3.54620000       2.58420000
H       -0.03020000      -2.22390000       3.37280000
H       -0.91140000      -3.52090000       2.56170000
H       -0.12990000      -0.16920000       2.15140000
