16
Properties=species:S:1:pos:R:3 gdb_71380=T pbc="F F F"
C       -0.02930000       1.43110000       0.04080000
C       -0.00920000      -0.06300000       0.02090000
N       -1.19600000      -0.89820000      -0.31160000
C       -0.38580000      -2.05210000       0.22950000
C        0.62040000      -1.06940000       0.93400000
C        1.21190000      -0.84720000      -0.50090000
O        2.41180000      -0.25100000      -0.78200000
C        0.69640000      -2.20710000      -0.86820000
O        1.09760000      -3.11720000      -1.53380000
H        0.97390000       1.82200000       0.23210000
H       -0.37910000       1.82070000      -0.92140000
H       -0.69730000       1.80770000       0.82230000
H       -1.91100000      -0.67920000       0.38480000
H       -0.89860000      -2.90790000       0.65710000
H        1.16710000      -1.06260000       1.86710000
H        2.32420000       0.26010000      -1.59490000
