11
Properties=species:S:1:pos:R:3 gdb_48381=T pbc="F F F"
O       -0.49800000       0.63610000       0.85640000
C        0.20910000       0.90950000      -0.06920000
C        1.29290000       1.97050000       0.00760000
O        2.40690000       1.75160000      -0.86330000
C        1.55730000       2.83660000      -1.18710000
C        0.75930000       2.72530000      -2.38980000
N        0.12420000       2.66540000      -3.35280000
C        1.59010000       2.50800000       1.31900000
N        1.82800000       2.94600000       2.36020000
H        0.15500000       0.41720000      -1.05960000
H        1.96580000       3.82690000      -0.99580000
