19
Properties=species:S:1:pos:R:3 gdb_56979=T pbc="F F F"
C        0.02820000       1.48780000       0.15420000
C       -0.07140000      -0.04160000       0.00380000
C       -1.47450000      -0.46440000      -0.06740000
N       -2.57820000      -0.79920000      -0.14880000
C        0.68530000      -0.56650000      -1.22800000
C        2.25730000      -0.44780000      -1.23630000
C        2.32570000      -1.97040000      -1.38390000
N        1.64590000      -2.52190000      -0.18780000
C        0.84290000      -2.08860000      -1.35750000
H        1.07730000       1.78450000       0.23640000
H       -0.40720000       1.99570000      -0.71140000
H       -0.49740000       1.82980000       1.04910000
H        0.36820000      -0.52540000       0.88360000
H        0.26060000      -0.13380000      -2.13780000
H        2.62560000       0.09850000      -2.10650000
H        2.72410000      -0.05320000      -0.32990000
H        3.06050000      -2.55390000      -1.92390000
H        1.71610000      -3.53760000      -0.23450000
H        0.17890000      -2.77820000      -1.86270000
