22
Properties=species:S:1:pos:R:3 gdb_58875=T pbc="F F F"
C       -0.02640000       1.50800000       0.39380000
C       -0.03750000       0.03030000      -0.00770000
O        0.65750000      -0.77400000       0.94600000
C       -1.43060000      -0.52830000      -0.09920000
N       -2.17770000      -0.91240000       1.12220000
C       -1.91730000      -1.92240000       0.06020000
C       -3.00540000      -1.71900000      -0.99640000
C       -2.48400000      -0.24500000      -1.19300000
C       -3.46370000       0.90100000      -0.97980000
H        1.00160000       1.88370000       0.46260000
H       -0.55030000       2.11770000      -0.34850000
H       -0.51550000       1.64500000       1.36240000
H        0.43920000      -0.07100000      -0.99750000
H        1.49550000      -0.34540000       1.14430000
H       -1.46000000      -1.06660000       1.83190000
H       -1.35950000      -2.82150000       0.28930000
H       -2.87680000      -2.33490000      -1.88930000
H       -4.02990000      -1.81820000      -0.62700000
H       -1.99230000      -0.15640000      -2.16810000
H       -3.89730000       0.84380000       0.02200000
H       -2.97570000       1.87640000      -1.08840000
H       -4.27820000       0.85790000      -1.71130000
