20
Properties=species:S:1:pos:R:3 gdb_124629=T pbc="F F F"
C       -0.23780000       1.50050000       0.01350000
C        0.03210000      -0.01230000       0.03550000
C        0.81380000      -0.43110000       1.28170000
N       -1.18720000      -0.82550000      -0.04380000
C       -1.97770000      -0.75370000      -1.19620000
C       -3.35120000      -0.90340000      -1.29190000
N       -3.64910000      -0.84690000      -2.62080000
N       -2.57690000      -0.65750000      -3.39640000
C       -1.55450000      -0.60200000      -2.54250000
H        0.69880000       2.06780000      -0.00340000
H       -0.82270000       1.77940000      -0.86720000
H       -0.79890000       1.80440000       0.90550000
H        0.63540000      -0.27030000      -0.84360000
H        0.24200000      -0.20800000       2.19140000
H        1.02180000      -1.50410000       1.26620000
H        1.76110000       0.11160000       1.34810000
H       -1.74020000      -0.73880000       0.80020000
H       -4.10990000      -1.05090000      -0.54010000
H       -4.55540000      -0.92230000      -3.04840000
H       -0.55380000      -0.45670000      -2.91960000
