14
Properties=species:S:1:pos:R:3 gdb_4809=T pbc="F F F"
N        0.26090000       1.41070000      -0.16300000
C       -0.08670000       0.01770000       0.14340000
C        0.70590000      -0.47840000       1.30570000
N        0.27890000      -1.01830000       2.40820000
C        1.42800000      -1.31190000       3.11530000
O        1.37790000      -1.89030000       4.32880000
C        2.51830000      -0.93110000       2.40560000
O        2.04840000      -0.39270000       1.22430000
H        1.24360000       1.46220000      -0.41480000
H       -0.26050000       1.71300000      -0.98030000
H       -1.14000000      -0.03770000       0.42930000
H        0.06000000      -0.67920000      -0.70130000
H        0.44370000      -2.01120000       4.53740000
H        3.58120000      -0.95090000       2.55530000
