21
Properties=species:S:1:pos:R:3 gdb_90363=T pbc="F F F"
C        0.27660000       1.56930000      -0.07510000
C        0.11080000       0.06180000       0.05160000
C        0.94100000      -0.87340000      -0.87520000
C        1.30130000      -1.78460000       0.34750000
C        2.66500000      -1.43570000       0.92890000
O        3.75920000      -1.91370000       0.83250000
C        2.08610000      -0.27920000       1.76800000
C        0.65150000      -0.69620000       1.30290000
C       -0.32620000      -1.03680000       2.40760000
H        1.32840000       1.87150000      -0.03460000
H       -0.12570000       1.92420000      -1.03040000
H       -0.25530000       2.09810000       0.72390000
H       -0.95230000      -0.18520000      -0.05310000
H        0.37400000      -1.37980000      -1.65830000
H        1.80920000      -0.39890000      -1.34250000
H        1.00290000      -2.83240000       0.29230000
H        2.26250000      -0.41990000       2.83950000
H        2.43850000       0.72020000       1.49910000
H       -0.63470000      -0.13560000       2.95180000
H       -1.23060000      -1.50830000       2.00810000
H        0.11550000      -1.72540000       3.13700000
