15
Properties=species:S:1:pos:R:3 gdb_49472=T pbc="F F F"
O       -0.88390000       1.32870000      -0.05610000
C        0.23180000       0.98490000      -0.35310000
C        1.48760000       1.74780000      -0.01570000
C        1.59020000       2.86350000       0.93790000
C        0.65930000       2.70250000       2.14110000
C        1.40050000       1.35750000       2.40350000
C        0.66500000       0.10060000       2.46110000
N        0.10380000      -0.90870000       2.51510000
N        2.32070000       1.54820000       1.21220000
H        0.41090000       0.06770000      -0.95240000
H        2.16460000       1.79140000      -0.86810000
H        2.14460000       3.76480000       0.69870000
H        0.84680000       3.42500000       2.93530000
H       -0.40340000       2.65290000       1.91620000
H        2.03060000       1.41750000       3.29410000
