23
Properties=species:S:1:pos:R:3 gdb_70088=T pbc="F F F"
C       -0.13270000       1.49000000       0.05050000
C        0.03900000      -0.01320000       0.01890000
C       -0.76440000      -0.82090000       1.01220000
C        0.74830000      -0.75830000       1.14200000
C        1.44900000      -1.89750000       0.48560000
C        1.22420000      -1.91560000      -0.82890000
C        0.42610000      -0.71280000      -1.31420000
C       -0.80350000      -1.11770000      -2.14830000
C        1.34530000       0.17560000      -2.18030000
H        0.76960000       2.01820000      -0.27290000
H       -0.95700000       1.81270000      -0.59750000
H       -0.36640000       1.82930000       1.06440000
H       -1.35810000      -0.25310000       1.72250000
H       -1.19600000      -1.77290000       0.72330000
H        1.18870000      -0.24740000       1.99190000
H        2.01750000      -2.63750000       1.03820000
H        1.56910000      -2.67930000      -1.51870000
H       -1.47100000      -1.78020000      -1.59160000
H       -1.37680000      -0.23340000      -2.44880000
H       -0.49970000      -1.63910000      -3.06290000
H        1.71840000      -0.39410000      -3.03810000
H        0.81310000       1.04970000      -2.57040000
H        2.21160000       0.52350000      -1.60990000
