22
Properties=species:S:1:pos:R:3 gdb_13894=T pbc="F F F"
C        0.30110000       1.04700000       0.70990000
C        0.19420000      -0.28430000      -0.04850000
C        1.14190000      -1.33990000       0.54170000
C       -1.23790000      -0.79580000      -0.03730000
C       -2.29580000      -0.36880000      -1.04650000
C       -2.01080000       0.58800000      -2.18470000
C       -1.73410000      -1.77770000      -1.06160000
O       -0.81700000      -2.14490000      -2.05670000
H        1.32820000       1.42740000       0.69460000
H       -0.34930000       1.81170000       0.27370000
H        0.01000000       0.92380000       1.76030000
H        0.49760000      -0.11520000      -1.08620000
H        0.87140000      -1.57510000       1.57850000
H        1.10000000      -2.26530000      -0.03890000
H        2.17710000      -0.98180000       0.54330000
H       -1.61440000      -0.96450000       0.97070000
H       -3.30160000      -0.28130000      -0.64200000
H       -1.06320000       0.35900000      -2.67690000
H       -2.79960000       0.52810000      -2.94380000
H       -1.97080000       1.62630000      -1.83870000
H       -2.37610000      -2.59220000      -0.72560000
H       -1.30400000      -2.28480000      -2.87560000
