15
Properties=species:S:1:pos:R:3 gdb_132899=T pbc="F F F"
C       -0.02980000       1.52590000       0.04900000
C       -0.00330000       0.02410000      -0.00850000
C       -0.02400000      -0.67740000      -1.17940000
C        0.00120000      -2.12810000      -1.24380000
O       -0.01510000      -2.81710000      -2.25110000
N        0.04910000      -2.73120000       0.02740000
C        0.07100000      -2.06300000       1.21710000
C        0.04570000      -0.70950000       1.21480000
F        0.06650000      -0.03230000       2.37320000
H        0.85540000       1.91130000       0.56610000
H       -0.06500000       1.95540000      -0.95360000
H       -0.89970000       1.87850000       0.61340000
H       -0.06110000      -0.16650000      -2.13420000
H        0.06750000      -3.74110000       0.01270000
H        0.10810000      -2.64510000       2.12830000
