18
Properties=species:S:1:pos:R:3 gdb_116732=T pbc="F F F"
C       -0.55580000       0.88700000      -1.04040000
O       -0.79000000       0.09430000       0.11820000
C       -1.31560000      -1.12360000      -0.11290000
N       -1.55860000      -1.89310000       0.85390000
C       -2.12950000      -3.20930000       0.59620000
C       -2.38690000      -3.59270000      -0.79620000
C       -2.57260000      -3.88690000      -1.95110000
C       -2.86650000      -4.24350000      -3.33900000
O       -3.77530000      -3.35280000      -3.97240000
H       -0.13500000       1.82900000      -0.68710000
H        0.15940000       0.40620000      -1.71860000
H       -1.48670000       1.09050000      -1.58320000
H       -1.49790000      -1.35770000      -1.16930000
H       -1.46180000      -3.95470000       1.04940000
H       -3.06490000      -3.28060000       1.16770000
H       -1.95190000      -4.21030000      -3.94140000
H       -3.23030000      -5.28290000      -3.37560000
H       -4.55620000      -3.29350000      -3.41200000
