17
Properties=species:S:1:pos:R:3 gdb_81838=T pbc="F F F"
C       -0.22530000       1.40030000       0.27990000
C        0.14120000      -0.03060000       0.05770000
O       -0.62810000      -1.05390000       0.68260000
C        0.79170000      -1.04600000       0.90830000
C        1.45760000      -1.72680000      -0.29920000
O        1.25910000      -3.08240000      -0.51720000
C        0.73380000      -0.67060000      -1.24120000
C       -0.29880000      -1.17700000      -2.20240000
O       -0.86700000      -2.23980000      -2.08720000
H        0.59170000       2.06240000      -0.02350000
H       -1.11500000       1.67260000      -0.29840000
H       -0.44340000       1.57150000       1.33720000
H        1.12040000      -0.99760000       1.94070000
H        2.53680000      -1.54160000      -0.29760000
H        0.33060000      -3.18950000      -0.77590000
H        1.43230000       0.00300000      -1.74580000
H       -0.55380000      -0.49700000      -3.04480000
