18
Properties=species:S:1:pos:R:3 gdb_44467=T pbc="F F F"
O        0.02050000       0.03350000       0.23440000
C       -0.01370000       1.21940000       0.06440000
C       -1.33100000       2.05280000      -0.13450000
C       -0.79900000       3.41290000      -0.56600000
N       -0.86340000       4.80160000       0.15380000
C       -0.13970000       4.09290000       1.30550000
C        0.59000000       3.50480000       0.06950000
C        0.56680000       4.97150000      -0.43180000
C        1.24880000       2.15060000       0.00690000
H       -1.96040000       1.56160000      -0.87980000
H       -1.88550000       2.03440000       0.80800000
H       -0.85840000       3.54690000      -1.65020000
H        0.42530000       4.77530000       1.94590000
H       -0.78190000       3.45110000       1.91070000
H        0.58080000       5.14320000      -1.51130000
H        1.15410000       5.72130000       0.10440000
H        1.93850000       1.89400000       0.81440000
H        1.75880000       1.96460000      -0.94640000
