17
Properties=species:S:1:pos:R:3 gdb_28018=T pbc="F F F"
C        0.02430000       1.51360000       0.04670000
C        0.01640000       0.02240000      -0.02550000
C        0.10430000      -0.83200000      -1.10090000
C        0.05080000      -2.16930000      -0.60700000
C        0.09740000      -3.43960000      -1.41470000
C        1.36340000      -3.62620000      -2.13340000
N        2.35750000      -3.76810000      -2.70520000
C       -0.06790000      -2.09050000       0.76020000
N       -0.08940000      -0.76120000       1.10050000
H        0.85720000       1.89280000       0.65160000
H        0.12830000       1.93250000      -0.95640000
H       -0.90220000       1.91250000       0.47830000
H        0.20690000      -0.53240000      -2.13320000
H       -0.05390000      -4.30690000      -0.76300000
H       -0.71100000      -3.46640000      -2.15670000
H       -0.13670000      -2.86390000       1.50860000
H       -0.16930000      -0.40890000       2.03870000
