15
Properties=species:S:1:pos:R:3 gdb_5153=T pbc="F F F"
C       -0.03070000      -1.22600000      -0.00550000
C       -0.00410000      -0.02550000       0.00170000
C        0.01990000       1.43810000       0.01030000
N        1.35700000       2.00760000       0.00040000
C        2.12160000       2.26140000       1.11440000
C        3.35110000       2.71120000       0.69610000
C        3.33580000       2.72240000      -0.72690000
C        2.09750000       2.27900000      -1.12570000
H       -0.04710000      -2.28800000      -0.01190000
H       -0.52300000       1.82330000      -0.86000000
H       -0.50570000       1.81270000       0.89570000
H        1.72000000       2.09750000       2.10200000
H        4.16500000       3.01110000       1.33820000
H        4.13570000       3.03250000      -1.38150000
H        1.67470000       2.13070000      -2.10690000
