18
Properties=species:S:1:pos:R:3 gdb_75455=T pbc="F F F"
C       -0.19140000       1.47280000       0.02720000
C       -0.01870000      -0.00880000      -0.03960000
C        0.08900000      -0.80260000      -1.10020000
C        0.19800000      -2.23820000      -0.68520000
O        0.27540000      -2.20040000       0.74270000
C        0.02290000      -0.88120000       1.21540000
C        1.11200000      -0.49560000       2.22500000
C       -1.30770000      -0.84330000       1.88480000
N       -2.34360000      -0.79040000       2.39500000
H        0.64410000       1.95230000       0.55070000
H       -0.25700000       1.90580000      -0.97360000
H       -1.10410000       1.73510000       0.57540000
H        0.08190000      -0.48510000      -2.13560000
H       -0.67220000      -2.83210000      -1.00530000
H        1.09730000      -2.73740000      -1.07070000
H        2.07800000      -0.47650000       1.71440000
H        0.91350000       0.48550000       2.66450000
H        1.14850000      -1.23570000       3.02750000
