14
Properties=species:S:1:pos:R:3 gdb_48517=T pbc="F F F"
O        0.09650000      -0.06980000       0.46660000
C        0.06740000       1.09450000       0.15800000
C        1.25760000       1.97520000       0.09730000
C        2.62700000       1.69100000      -0.53700000
C        2.93370000       3.23540000      -0.45380000
C        3.24620000       2.94240000       1.02590000
N        2.48770000       1.63660000       0.90740000
C        1.39920000       3.38680000      -0.40740000
O        0.62150000       4.19890000      -0.81810000
H       -0.87360000       1.60430000      -0.13620000
H        2.87230000       0.87390000      -1.20130000
H        3.54180000       3.85230000      -1.10880000
H        4.29140000       2.69510000       1.22000000
H        2.86850000       3.63610000       1.78350000
