18
Properties=species:S:1:pos:R:3 gdb_42348=T pbc="F F F"
O       -0.32320000       0.23900000       0.90060000
C       -0.23180000       1.41900000       0.63790000
C        1.10120000       2.12380000       0.51470000
C        2.07790000       1.92510000       1.70540000
O        3.10300000       1.39620000       0.84530000
C        2.20160000       1.37250000      -0.27610000
N       -1.34450000       2.25120000       0.52660000
C       -1.77890000       2.90110000      -0.69930000
C       -2.58760000       1.81100000      -0.05670000
H        0.97970000       3.16740000       0.22510000
H        2.39740000       2.83750000       2.22040000
H        1.73030000       1.18420000       2.43450000
H        1.91620000       0.35050000      -0.55140000
H        2.61180000       1.89580000      -1.14720000
H       -2.08760000       3.93870000      -0.60700000
H       -1.25180000       2.65740000      -1.61880000
H       -2.58860000       0.82970000      -0.52320000
H       -3.48800000       2.06660000       0.49380000
