18
Properties=species:S:1:pos:R:3 gdb_84264=T pbc="F F F"
C        0.22300000       1.40770000      -0.04790000
N       -0.00080000      -0.01920000      -0.00760000
C       -0.07370000      -0.87280000      -1.12540000
C       -0.49710000      -2.08910000      -0.75560000
C        0.00150000      -3.50900000      -0.91990000
C        0.46400000      -3.36670000       0.57510000
C       -0.51960000      -2.14500000       0.75240000
C       -0.14740000      -0.72920000       1.18920000
O       -0.09420000      -0.24090000       2.29680000
H        1.15530000       1.65120000      -0.57090000
H       -0.60350000       1.92690000      -0.54630000
H        0.29170000       1.75210000       0.98560000
H        0.32640000      -0.53160000      -2.07180000
H       -0.79480000      -4.25230000      -1.02730000
H        0.77030000      -3.69670000      -1.67250000
H        0.28060000      -4.21590000       1.23620000
H        1.50920000      -3.06130000       0.64590000
H       -1.44680000      -2.44860000       1.24510000
