15
Properties=species:S:1:pos:R:3 gdb_2419=T pbc="F F F"
C       -0.00650000       1.48880000      -0.01700000
C        0.03970000      -0.00970000      -0.08550000
C        0.55970000      -0.95350000      -1.19710000
C        0.07180000      -1.94020000      -0.11450000
C        0.50860000      -0.99400000       1.04270000
O       -0.78200000      -1.01810000       1.72390000
C       -1.10590000      -1.00980000       0.30080000
H        0.99700000       1.92170000      -0.09100000
H       -0.61060000       1.90600000      -0.82990000
H       -0.44690000       1.80480000       0.93440000
H        0.00540000      -0.94880000      -2.14050000
H        1.63630000      -0.93290000      -1.39100000
H        0.07590000      -3.02930000      -0.10010000
H        1.41900000      -0.99090000       1.64270000
H       -2.15400000      -1.02580000       0.00080000
