13
Properties=species:S:1:pos:R:3 gdb_133200=T pbc="F F F"
C       -0.03330000       1.54160000       0.00510000
C       -0.00920000       0.04500000      -0.02790000
N       -0.04350000      -0.58710000      -1.16600000
N       -0.01900000      -1.91710000      -1.11800000
C        0.04030000      -2.73630000       0.02690000
O        0.05640000      -3.93720000      -0.07820000
N        0.07590000      -2.03090000       1.23090000
C        0.05180000      -0.75600000       1.17030000
F        0.08520000      -0.07650000       2.30790000
H        0.86060000       1.93840000       0.49750000
H       -0.08030000       1.92650000      -1.01440000
H       -0.89830000       1.90850000       0.56730000
H       -0.04640000      -2.38800000      -2.01240000
