19
Properties=species:S:1:pos:R:3 gdb_94399=T pbc="F F F"
C       -0.60400000       1.24100000      -0.08830000
C        0.17300000      -0.06390000      -0.14550000
C        1.58140000      -0.08620000      -0.80290000
C        2.05360000      -1.04580000       0.31990000
C        0.80730000      -0.65220000       1.15460000
C        0.92630000       0.13600000       2.47170000
O        0.19900000      -0.92350000       3.17880000
C        0.06820000      -1.65940000       2.02570000
O       -0.46790000      -2.71260000       1.88730000
H        0.00110000       2.05410000       0.32780000
H       -0.91360000       1.54430000      -1.09410000
H       -1.50930000       1.14600000       0.52160000
H       -0.45110000      -0.84970000      -0.58530000
H        1.65080000      -0.43970000      -1.83380000
H        2.07010000       0.89110000      -0.73640000
H        2.00290000      -2.09650000       0.02250000
H        3.02690000      -0.85630000       0.77860000
H        1.93520000       0.24640000       2.87670000
H        0.38130000       1.07980000       2.53560000
