18
Properties=species:S:1:pos:R:3 gdb_124472=T pbc="F F F"
C        0.00980000       1.57290000       0.09540000
C        0.00470000       0.04050000       0.00270000
C        0.62480000      -0.58000000       1.26160000
O       -1.34390000      -0.44650000      -0.01770000
C        0.72120000      -0.44240000      -1.23730000
C        1.60090000       0.18400000      -2.06400000
O        1.98890000      -0.62900000      -3.05880000
N        1.34660000      -1.85540000      -2.91310000
C        0.60820000      -1.73210000      -1.84050000
H        1.02690000       1.96650000       0.19060000
H       -0.44450000       2.02070000      -0.79510000
H       -0.56400000       1.88710000       0.97090000
H        0.06330000      -0.26250000       2.14480000
H        0.58920000      -1.67080000       1.20450000
H        1.66740000      -0.27120000       1.37120000
H       -1.77380000      -0.08760000      -0.80210000
H        2.03350000       1.17210000      -2.07600000
H       -0.00520000      -2.56160000      -1.51910000
