21
Properties=species:S:1:pos:R:3 gdb_57184=T pbc="F F F"
C        0.02930000       1.44210000      -0.09300000
C        0.03390000      -0.06230000      -0.11210000
O        1.05340000      -0.70880000      -0.25600000
C       -1.29280000      -0.83740000       0.00260000
O       -1.05290000      -2.18500000      -0.30530000
C       -1.96650000      -0.73240000       1.40530000
C       -3.23630000      -1.59080000       1.40470000
C       -1.00540000      -1.17410000       2.51460000
O       -2.31740000       0.64910000       1.55390000
H        1.05010000       1.81540000      -0.18380000
H       -0.57780000       1.81650000      -0.92520000
H       -0.44950000       1.80240000       0.82010000
H       -2.00090000      -0.39960000      -0.71850000
H       -0.08550000      -2.24670000      -0.39210000
H       -2.99780000      -2.63520000       1.19630000
H       -3.73050000      -1.53500000       2.38220000
H       -3.93610000      -1.23100000       0.64480000
H       -0.14590000      -0.50130000       2.58500000
H       -1.51480000      -1.17670000       3.48450000
H       -0.64030000      -2.18580000       2.32060000
H       -2.80620000       0.73990000       2.37830000
