19
Properties=species:S:1:pos:R:3 gdb_114193=T pbc="F F F"
O       -0.49550000       1.64990000      -0.16870000
C       -0.12990000       0.31030000      -0.42430000
C       -1.26220000      -0.64500000      -0.03820000
C       -0.98170000      -2.18360000       0.06250000
C       -1.36320000      -2.13560000       1.55570000
C       -2.24950000      -3.06850000       2.35770000
C       -0.81540000      -2.89990000       2.74020000
C       -1.53010000      -0.65100000       1.47470000
O       -1.69360000       0.23180000       2.28000000
H       -0.80090000       1.68950000       0.74760000
H        0.09090000       0.23710000      -1.49470000
H        0.78820000       0.02570000       0.11800000
H       -2.15920000      -0.39660000      -0.61430000
H       -1.61790000      -2.80770000      -0.56800000
H        0.06460000      -2.44660000      -0.11790000
H       -3.00920000      -2.60660000       2.97920000
H       -2.55080000      -3.98980000       1.87050000
H       -0.12400000      -3.70700000       2.52260000
H       -0.58130000      -2.31690000       3.62480000
