20
Properties=species:S:1:pos:R:3 gdb_35712=T pbc="F F F"
N       -0.03780000      -1.20780000       0.04380000
C       -0.02030000      -0.05110000       0.05530000
C        0.01400000       1.40280000       0.08470000
C       -0.20560000       2.00000000       1.51550000
C        1.32920000       2.15040000       1.66380000
C        1.47240000       2.00970000       0.12180000
C        2.61810000       1.23290000      -0.45570000
C        3.01310000       1.41290000      -1.90190000
C        3.90720000       1.93650000      -0.80740000
H       -0.63820000       1.78350000      -0.70510000
H       -0.71640000       2.96340000       1.44990000
H       -0.72880000       1.36800000       2.23370000
H        1.70840000       3.06610000       2.12150000
H        1.76950000       1.29250000       2.18030000
H        1.42220000       2.99860000      -0.34730000
H        2.71750000       0.22560000      -0.06060000
H        3.33120000       0.53780000      -2.45680000
H        2.46060000       2.13610000      -2.49320000
H        3.95570000       3.01100000      -0.66270000
H        4.84090000       1.42180000      -0.61100000
