17
Properties=species:S:1:pos:R:3 gdb_112498=T pbc="F F F"
C        0.16160000       1.24220000       0.27550000
O       -0.01890000      -0.02920000      -0.32940000
C       -1.27540000      -0.57870000      -0.09920000
C       -1.52460000      -1.96880000      -0.73770000
C       -2.23340000      -2.46240000       0.57190000
C       -1.97620000      -3.78880000       1.07640000
C       -1.73290000      -4.88460000       1.50660000
C       -1.55560000      -1.24050000       1.27470000
O       -1.22010000      -1.01140000       2.39570000
H        1.16440000       1.58000000       0.00660000
H       -0.57450000       1.96900000      -0.10160000
H        0.07680000       1.18310000       1.36660000
H       -2.08590000       0.13100000      -0.34420000
H       -2.11770000      -1.99430000      -1.65080000
H       -0.57650000      -2.48700000      -0.88910000
H       -3.31230000      -2.26880000       0.51460000
H       -1.52210000      -5.85240000       1.88920000
