16
Properties=species:S:1:pos:R:3 gdb_52037=T pbc="F F F"
N        0.00330000       1.26850000      -0.11910000
C       -0.05630000       0.01680000      -0.25020000
O       -1.23330000      -0.62110000      -0.06570000
C       -1.20130000      -2.04430000      -0.16800000
C       -2.63200000      -2.52720000       0.00220000
C       -2.76950000      -4.02710000      -0.24140000
O       -1.86430000      -4.72190000      -0.62170000
C       -3.23350000      -2.18680000       1.36840000
O       -4.36270000      -2.47000000       1.66870000
H        0.95010000       1.59510000      -0.30020000
H        0.76990000      -0.65730000      -0.51490000
H       -0.80460000      -2.36380000      -1.13720000
H       -0.55810000      -2.47070000       0.61350000
H       -3.28340000      -2.03430000      -0.73430000
H       -3.78100000      -4.42640000      -0.02970000
H       -2.54520000      -1.67690000       2.07410000
