14
Properties=species:S:1:pos:R:3 gdb_132823=T pbc="F F F"
F       -0.00460000       0.03210000       0.00430000
C       -0.02190000       1.36480000       0.01090000
C       -1.24150000       2.02130000       0.02970000
C       -1.26250000       3.41340000       0.03650000
C       -0.06800000       4.13210000       0.02450000
C        1.14700000       3.45970000       0.00570000
C        1.19740000       2.05590000      -0.00160000
C        2.43380000       1.35430000      -0.02080000
C        3.49140000       0.77960000      -0.03710000
H       -2.15190000       1.43390000       0.03860000
H       -2.21390000       3.93360000       0.05120000
H       -0.08350000       5.21600000       0.02980000
H        2.08180000       4.00780000      -0.00380000
H        4.41920000       0.26350000      -0.05140000
