19
Properties=species:S:1:pos:R:3 gdb_34296=T pbc="F F F"
C        0.00870000      -1.14190000      -0.03280000
C       -0.01030000       0.05930000      -0.02360000
C       -0.00540000       1.50700000       0.03770000
C       -0.81170000       2.12250000       1.21970000
C       -1.15080000       3.53120000       0.65430000
C       -0.47110000       3.46650000      -0.73130000
C        1.06150000       3.57560000      -0.57260000
C        1.40470000       2.16710000      -0.00940000
O       -0.65360000       2.09530000      -1.10980000
H        0.01930000      -2.20360000      -0.05170000
H       -1.71100000       1.53210000       1.40190000
H       -0.22740000       2.14730000       2.14210000
H       -2.22960000       3.66330000       0.54730000
H       -0.76870000       4.34850000       1.27140000
H       -0.90720000       4.11140000      -1.49410000
H        1.53740000       3.73870000      -1.54200000
H        1.35760000       4.39120000       0.09210000
H        1.87690000       2.18970000       0.97520000
H        2.05320000       1.60760000      -0.68540000
