17
Properties=species:S:1:pos:R:3 gdb_90989=T pbc="F F F"
C       -0.08480000       1.56160000      -0.07710000
C        0.01020000       0.04710000      -0.01760000
O        0.89220000      -0.46450000      -1.05100000
C        1.85920000      -1.18740000      -0.33090000
C        1.22140000      -1.95010000       0.86070000
O        2.42000000      -1.73510000       1.68580000
C        2.24710000      -0.45510000       0.98080000
C        0.69330000      -0.51610000       1.22050000
O        0.12070000      -0.22170000       2.43470000
H        0.89920000       2.02080000       0.05840000
H       -0.48220000       1.87990000      -1.04450000
H       -0.74980000       1.92500000       0.71200000
H       -0.98290000      -0.40070000      -0.15370000
H        2.60780000      -1.64960000      -0.96860000
H        0.72580000      -2.91910000       0.91200000
H        2.96690000       0.33930000       1.17430000
H        0.67230000      -0.64670000       3.10640000
