20
Properties=species:S:1:pos:R:3 gdb_26220=T pbc="F F F"
C       -0.03660000       1.55340000      -0.09770000
C       -0.02630000       0.01230000      -0.06470000
C       -1.46210000      -0.54830000      -0.05390000
C        0.78400000      -0.56050000      -1.18050000
C        1.90780000      -1.31530000      -1.25060000
C        2.19970000      -1.52800000      -2.64400000
C        1.21220000      -0.88230000      -3.32370000
N        0.87570000      -0.77890000      -4.66890000
O        0.34500000      -0.29150000      -2.46670000
H        0.98010000       1.95460000      -0.05120000
H       -0.50020000       1.91570000      -1.02060000
H       -0.60500000       1.95600000       0.74710000
H        0.47320000      -0.30680000       0.85840000
H       -1.98760000      -0.27960000      -0.97560000
H       -1.45710000      -1.63940000       0.02390000
H       -2.02990000      -0.14460000       0.79080000
H        2.47650000      -1.67860000      -0.40810000
H        3.02270000      -2.07900000      -3.06960000
H        1.66440000      -0.95540000      -5.27600000
H        0.45200000       0.11330000      -4.89310000
