19
Properties=species:S:1:pos:R:3 gdb_26657=T pbc="F F F"
C        0.17750000       1.44780000       0.03020000
C       -0.04070000      -0.02370000       0.01400000
C       -1.16210000      -0.80110000       0.04990000
C       -2.59500000      -0.38010000       0.14320000
C       -0.69560000      -2.16460000      -0.01070000
N       -1.49740000      -3.31210000       0.08240000
C        0.66210000      -2.11740000      -0.08010000
N        1.59620000      -3.15370000      -0.14110000
O        1.07840000      -0.79720000      -0.05330000
H        0.82090000       1.74800000       0.86540000
H        0.65940000       1.79520000      -0.89170000
H       -0.77450000       1.97350000       0.13010000
H       -3.15970000      -0.63830000      -0.76260000
H       -3.09730000      -0.87560000       0.98230000
H       -2.69190000       0.69940000       0.28600000
H       -2.30180000      -3.27750000      -0.53280000
H       -0.95300000      -4.14240000      -0.12360000
H        2.17350000      -3.21740000       0.69300000
H        2.21810000      -3.07090000      -0.93980000
