17
Properties=species:S:1:pos:R:3 gdb_98700=T pbc="F F F"
C        0.20010000       1.68760000      -0.15920000
C        1.14590000       0.53600000      -0.49170000
C        0.48150000      -0.55610000      -1.30130000
O       -0.68360000      -0.53140000      -1.62840000
C        1.31500000      -1.73450000      -1.76300000
N        2.77270000      -1.67430000      -1.67110000
C        2.07480000      -2.65370000      -0.83550000
C        2.13200000      -2.46920000       0.59540000
N        2.16830000      -2.35360000       1.74500000
H       -0.19410000       2.14770000      -1.06910000
H       -0.65450000       1.33580000       0.42410000
H        0.72210000       2.45410000       0.41940000
H        2.02590000       0.87360000      -1.05380000
H        1.56010000       0.08750000       0.42050000
H        0.85400000      -2.24350000      -2.60690000
H        3.21690000      -2.13360000      -2.46150000
H        2.08930000      -3.70000000      -1.13090000
