21
Properties=species:S:1:pos:R:3 gdb_108963=T pbc="F F F"
C       -0.24670000       1.53030000      -0.01770000
C        0.10070000       0.03120000       0.01010000
C        0.82310000      -0.43090000      -1.21890000
C        2.04570000      -0.97160000      -1.31250000
C        2.32940000      -1.35610000      -2.72410000
C        1.25520000      -2.15840000      -3.50790000
C       -0.11320000      -2.06990000      -2.84500000
C        0.16270000      -0.53300000      -2.58520000
C        1.33850000      -0.65260000      -3.60990000
H        0.66060000       2.13830000      -0.08750000
H       -0.87970000       1.77900000      -0.87580000
H       -0.78550000       1.82340000       0.88890000
H        0.71170000      -0.18540000       0.89390000
H       -0.82950000      -0.54290000       0.13030000
H        2.72290000      -1.16020000      -0.48760000
H        3.34510000      -1.50230000      -3.07370000
H        1.56860000      -2.91000000      -4.22300000
H       -0.90250000      -2.19850000      -3.59020000
H       -0.32610000      -2.69430000      -1.97020000
H       -0.66420000       0.14650000      -2.78810000
H        1.57320000      -0.00300000      -4.44460000
