18
Properties=species:S:1:pos:R:3 gdb_53214=T pbc="F F F"
C        0.19890000       1.58470000      -0.25830000
C        0.11420000       0.14340000      -0.08090000
C        0.04670000      -1.04910000       0.07380000
C       -0.02810000      -2.48310000       0.23950000
O       -0.04760000      -2.90250000       1.65660000
C       -1.26720000      -3.52700000       1.50250000
N       -1.98140000      -4.13640000       2.33270000
C       -1.40450000      -3.19880000       0.02950000
C       -2.61810000      -2.38210000      -0.38800000
H        1.17660000       1.88140000      -0.65280000
H       -0.56710000       1.94370000      -0.95420000
H        0.05120000       2.10410000       0.69470000
H        0.80690000      -2.98010000      -0.26360000
H       -1.55240000      -4.14630000       3.25970000
H       -1.30190000      -4.08930000      -0.59690000
H       -2.70680000      -1.47200000       0.21020000
H       -2.55150000      -2.09390000      -1.44130000
H       -3.52540000      -2.97580000      -0.24730000
