14
Properties=species:S:1:pos:R:3 gdb_25236=T pbc="F F F"
O       -0.08660000      -0.07340000       0.03030000
C        0.01570000       1.13220000       0.00200000
N       -1.05330000       2.03080000      -0.03030000
C       -0.69300000       3.44550000       0.01930000
C        0.79050000       3.29520000       0.00890000
C        1.21180000       2.00980000      -0.00680000
C        2.64340000       2.06310000      -0.02330000
C        2.94600000       3.39000000      -0.01800000
O        1.80520000       4.17070000       0.00060000
H       -1.99620000       1.70060000       0.08760000
H       -1.07570000       4.00150000      -0.84730000
H       -1.06720000       3.93970000       0.92670000
H        3.34800000       1.24730000      -0.03750000
H        3.87160000       3.94070000      -0.02390000
