18
Properties=species:S:1:pos:R:3 gdb_95923=T pbc="F F F"
C        0.62780000       1.40930000      -0.36710000
C       -0.07880000       0.16490000       0.16680000
O       -0.15740000      -0.88310000      -0.78340000
C        1.03490000      -1.67120000      -0.73180000
C        1.69590000      -1.39870000       0.63630000
C        0.66820000      -0.49120000       1.36550000
O        1.23990000       0.50550000       2.18760000
C       -0.27370000      -1.31350000       2.15230000
N       -0.97870000      -1.95820000       2.80320000
H        1.66650000       1.20460000      -0.64290000
H        0.09870000       1.75780000      -1.25790000
H        0.62650000       2.20380000       0.38220000
H       -1.10740000       0.41560000       0.44090000
H        0.73860000      -2.71640000      -0.85570000
H        1.70840000      -1.40850000      -1.55760000
H        1.91360000      -2.31280000       1.19100000
H        2.62150000      -0.82630000       0.53970000
H        1.62250000       0.08480000       2.96530000
