18
Properties=species:S:1:pos:R:3 gdb_119366=T pbc="F F F"
C       -0.64200000       0.75580000      -0.53180000
O        0.56110000       0.36900000      -1.17730000
C        1.28300000      -0.62890000      -0.49190000
C        0.79150000      -2.01670000      -0.82150000
C        0.74580000      -2.74480000      -2.20790000
C        0.35200000      -3.83300000      -1.16100000
N        1.41360000      -3.27920000      -0.20620000
C       -0.54960000      -2.74550000      -0.55580000
O       -1.65590000      -2.55050000      -0.16790000
H       -1.34080000      -0.08120000      -0.40890000
H       -0.43630000       1.18730000       0.45950000
H       -1.10290000       1.52120000      -1.16040000
H        2.32940000      -0.53280000      -0.80710000
H        1.24970000      -0.48170000       0.59870000
H        0.01560000      -2.42530000      -2.95680000
H        1.73780000      -2.90170000      -2.64230000
H        0.19210000      -4.89980000      -1.29910000
H        2.32260000      -3.41740000      -0.66260000
