20
Properties=species:S:1:pos:R:3 gdb_90047=T pbc="F F F"
C       -0.11740000       1.57410000       0.01220000
N        0.05050000       0.13970000       0.07510000
C       -1.16720000      -0.69780000       0.37950000
C       -0.22060000      -1.58760000       1.20250000
C        0.48870000      -2.28950000       2.38240000
C        1.56610000      -1.75870000       1.32290000
C        3.03650000      -2.04500000       1.26350000
O        0.71180000      -2.30310000       0.27230000
C        0.73680000      -0.41640000       1.27050000
H        0.85870000       2.04970000      -0.13000000
H       -0.74460000       1.83650000      -0.84650000
H       -0.58290000       2.01060000       0.91790000
H       -1.90730000      -0.16790000       0.99790000
H       -1.64640000      -1.15270000      -0.49140000
H        0.42720000      -1.81190000       3.36410000
H        0.41650000      -3.37710000       2.42470000
H        3.21930000      -3.12410000       1.28220000
H        3.45710000      -1.63710000       0.33960000
H        3.55150000      -1.58800000       2.11390000
H        0.74560000       0.23550000       2.15210000
