16
Properties=species:S:1:pos:R:3 gdb_56351=T pbc="F F F"
N        0.25730000       1.18220000       0.47920000
C        0.12560000      -0.09480000       0.02170000
N        1.03060000      -0.91050000      -0.38180000
C        2.41410000      -0.46220000      -0.39630000
C        2.94010000      -0.03700000       0.91390000
N        3.29270000       0.32980000       1.95290000
C       -1.28940000      -0.59220000      -0.02760000
C       -2.09850000      -0.67080000       1.20060000
O       -2.31220000       0.36990000       0.24420000
H        1.12280000       1.49820000       0.88560000
H       -0.59240000       1.64530000       0.76390000
H        3.04320000      -1.27990000      -0.76130000
H        2.55740000       0.38250000      -1.08940000
H       -1.49190000      -1.28810000      -0.83660000
H       -2.89100000      -1.41300000       1.26750000
H       -1.66370000      -0.35400000       2.14650000
