21
Properties=species:S:1:pos:R:3 gdb_40226=T pbc="F F F"
C       -0.42960000       1.50100000       0.09210000
N        0.97600000       1.08100000      -0.09960000
C       -0.07100000       0.06440000      -0.03720000
C       -0.13770000      -0.89270000       1.14160000
C       -1.42830000      -1.68310000       0.85090000
C       -1.48130000      -1.81680000      -0.69710000
C       -0.50790000      -0.75940000      -1.23290000
C       -0.51240000      -0.23710000      -2.61520000
N        0.49850000      -1.23250000      -2.20810000
H       -0.64660000       1.92240000       1.07060000
H       -0.94550000       1.98060000      -0.73530000
H        1.25990000       1.25420000      -1.06320000
H        0.73600000      -1.55580000       1.12110000
H       -0.14400000      -0.38040000       2.10640000
H       -1.45280000      -2.65230000       1.35450000
H       -2.29320000      -1.11340000       1.20720000
H       -1.14900000      -2.80190000      -1.03430000
H       -2.49580000      -1.66600000      -1.07770000
H       -1.25020000      -0.59680000      -3.32790000
H       -0.19500000       0.79040000      -2.78910000
H        1.39110000      -0.76960000      -2.04420000
