19
Properties=species:S:1:pos:R:3 gdb_102146=T pbc="F F F"
C        0.04580000       1.28880000       0.26730000
C        0.02470000      -0.20830000      -0.06750000
N        0.61820000      -0.53420000      -1.35850000
C        2.05170000      -0.80470000      -1.40930000
C        2.45260000      -1.96180000      -0.60740000
C        2.78460000      -2.89760000       0.06980000
C       -0.09210000      -0.64950000      -2.53610000
N       -1.45050000      -0.36190000      -2.44800000
O        0.41160000      -1.01610000      -3.58550000
H        1.06940000       1.67570000       0.27690000
H       -0.52110000       1.87550000      -0.46370000
H       -0.39020000       1.46540000       1.25570000
H        0.57750000      -0.76620000       0.69560000
H       -0.99720000      -0.59720000      -0.04160000
H        2.29340000      -0.97080000      -2.46180000
H        2.61370000       0.07790000      -1.07300000
H        3.08160000      -3.73630000       0.64960000
H       -1.75540000       0.35480000      -1.80870000
H       -1.86570000      -0.29400000      -3.36500000
