22
Properties=species:S:1:pos:R:3 gdb_91355=T pbc="F F F"
C        0.31380000       1.52250000      -0.13270000
C        0.03160000       0.05280000       0.07210000
O        0.76640000      -0.80780000      -0.84880000
C        1.22140000      -1.66000000       0.21420000
C        2.62030000      -1.30890000       0.74950000
N        2.02500000      -0.23470000       1.57110000
C        2.50900000      -0.04430000       2.91740000
C        0.63870000      -0.70490000       1.28920000
C       -0.25560000      -1.08170000       2.44610000
H        1.36370000       1.73500000       0.07880000
H        0.08740000       1.80760000      -1.16490000
H       -0.31410000       2.12840000       0.53070000
H       -1.04560000      -0.15430000      -0.02260000
H        0.95570000      -2.70940000       0.06730000
H        3.04470000      -2.13000000       1.35150000
H        3.36110000      -0.97730000       0.01400000
H        3.53820000       0.32990000       2.87890000
H        1.90700000       0.70900000       3.43520000
H        2.51450000      -0.96320000       3.53400000
H       -0.51800000      -0.20260000       3.04630000
H       -1.18780000      -1.51990000       2.07680000
H        0.21900000      -1.81000000       3.11090000
