18
Properties=species:S:1:pos:R:3 gdb_15816=T pbc="F F F"
C        0.00190000       1.39320000      -0.06350000
O        0.01150000      -0.01250000       0.02180000
C        0.62110000      -0.61770000      -1.07440000
C        0.60470000      -2.13580000      -0.93400000
O        0.11690000      -2.69870000       0.01850000
C        1.23930000      -2.87170000      -2.06670000
C        1.95750000      -4.17160000      -1.73410000
C        0.64480000      -4.22300000      -2.43610000
H        1.02150000       1.80820000      -0.10830000
H       -0.55090000       1.74650000      -0.94870000
H       -0.49310000       1.76790000       0.83510000
H        0.11750000      -0.35670000      -2.02530000
H        1.67390000      -0.29630000      -1.19320000
H        1.64600000      -2.26760000      -2.87110000
H        2.86120000      -4.39320000      -2.28980000
H        1.97230000      -4.43910000      -0.68380000
H       -0.21960000      -4.52490000      -1.85600000
H        0.61990000      -4.48110000      -3.48850000
