15
Properties=species:S:1:pos:R:3 gdb_33297=T pbc="F F F"
C        0.02500000      -3.78110000       0.07130000
C        0.04160000      -2.57380000       0.03360000
C        0.05720000      -1.21640000      -0.01100000
C        0.08590000      -0.00520000      -0.04360000
C        0.06760000       1.40800000      -0.13820000
C       -0.72890000       2.29460000      -1.11950000
C        0.42270000       3.35490000      -1.03230000
C        1.14790000       2.42910000      -0.04900000
O        0.27430000       2.19920000       1.05090000
H        0.01380000      -4.84220000       0.10770000
H       -0.81950000       1.85120000      -2.11240000
H       -1.71300000       2.59410000      -0.75450000
H        0.95150000       3.47490000      -1.98020000
H        0.16350000       4.33590000      -0.62860000
H        2.21030000       2.30090000       0.12490000
