17
Properties=species:S:1:pos:R:3 gdb_35385=T pbc="F F F"
N       -0.05160000      -1.16260000      -0.13490000
C       -0.02230000      -0.01030000      -0.04980000
C        0.00540000       1.44610000       0.03920000
C       -0.49260000       2.02100000       1.40570000
C        0.75140000       2.80750000       1.78690000
C        1.39120000       3.49810000       0.55240000
C        2.74290000       3.18480000       1.20740000
N        1.96550000       1.89380000       1.48700000
C        1.42390000       2.03420000       0.04790000
H       -0.56900000       1.84620000      -0.80280000
H       -1.37850000       2.65040000       1.29290000
H       -0.71410000       1.23310000       2.12850000
H        0.77730000       3.29470000       2.76290000
H        1.06120000       4.39730000       0.01920000
H        3.61210000       3.03910000       0.56060000
H        3.01600000       3.73200000       2.11360000
H        2.10950000       1.72490000      -0.74170000
