18
Properties=species:S:1:pos:R:3 gdb_49434=T pbc="F F F"
O       -0.02980000      -0.03910000      -0.05110000
C        0.05100000       1.16250000      -0.08900000
C        1.33710000       1.93910000      -0.09450000
C        1.37260000       2.95990000      -1.25640000
C        1.00750000       4.08680000      -0.34160000
C        1.27360000       3.17300000       0.88610000
C        2.69200000       3.54190000       1.32620000
C        3.38100000       3.83220000      -0.03320000
N        2.29560000       4.07300000      -1.01370000
H       -0.86460000       1.79940000      -0.12360000
H        2.17720000       1.24680000       0.01240000
H        1.09110000       2.75550000      -2.28350000
H        0.32450000       4.92060000      -0.44540000
H        0.52890000       3.11670000       1.67990000
H        2.67550000       4.43540000       1.95960000
H        3.17950000       2.73930000       1.88710000
H        4.01180000       4.72390000       0.00480000
H        4.00420000       3.00060000      -0.37470000
