17
Properties=species:S:1:pos:R:3 gdb_53893=T pbc="F F F"
C        1.01260000       0.65970000      -0.56430000
C        0.25660000      -0.20210000       0.42040000
O        0.78950000      -0.82760000       1.30090000
C       -1.29150000      -0.23210000       0.21520000
C       -1.59640000      -1.20590000      -0.82290000
C       -1.82340000      -2.01330000      -1.68480000
C       -2.01410000      -0.47900000       1.56880000
C       -2.05980000      -1.89170000       2.08940000
O       -2.47590000       0.46940000       2.15250000
H        2.08570000       0.50500000      -0.44870000
H        0.70060000       0.43130000      -1.58810000
H        0.77320000       1.71370000      -0.38010000
H       -1.60710000       0.76540000      -0.11040000
H       -2.03970000      -2.72550000      -2.44270000
H       -2.54070000      -2.55060000       1.36040000
H       -1.03210000      -2.24580000       2.22010000
H       -2.59620000      -1.91710000       3.03820000
