19
Properties=species:S:1:pos:R:3 gdb_86156=T pbc="F F F"
C        0.03110000       1.56760000      -0.01790000
C        0.09860000       0.04030000      -0.00540000
C        0.77050000      -0.54340000      -1.25960000
C        0.77340000      -2.06960000      -1.24250000
O        1.58150000      -2.50560000      -2.32970000
C        1.28780000      -2.59280000       0.07660000
C        1.29450000      -1.87360000       1.20370000
C        0.77480000      -0.48760000       1.26470000
O        0.86130000       0.17320000       2.28060000
H        1.03320000       2.00060000      -0.10300000
H       -0.56560000       1.92100000      -0.86410000
H       -0.41030000       1.93960000       0.90830000
H       -0.93020000      -0.35540000       0.03610000
H        0.26870000      -0.18780000      -2.16470000
H        1.81330000      -0.20780000      -1.31600000
H       -0.26330000      -2.42990000      -1.37580000
H        1.48770000      -3.45950000      -2.41840000
H        1.66710000      -3.61390000       0.07530000
H        1.68500000      -2.26730000       2.13720000
