21
Properties=species:S:1:pos:R:3 gdb_111230=T pbc="F F F"
O       -0.08550000       1.41690000       0.25380000
C       -0.00970000       0.03060000      -0.05590000
C       -1.41320000      -0.53850000       0.02940000
C       -1.49270000      -2.09760000       0.02760000
C       -1.36300000      -2.03730000       1.57890000
C       -2.02490000      -0.62810000       1.46790000
C       -3.51740000      -0.83540000       1.31310000
C       -3.93720000      -1.75070000       0.43810000
C       -2.91740000      -2.53710000      -0.35900000
H        0.80020000       1.78690000       0.19540000
H        0.38050000      -0.12790000      -1.07540000
H        0.67220000      -0.48910000       0.63470000
H       -2.04290000      -0.02340000      -0.70260000
H       -0.73430000      -2.65040000      -0.53550000
H       -1.89560000      -2.79040000       2.16490000
H       -0.32220000      -1.99310000       1.90600000
H       -1.76030000       0.14610000       2.18800000
H       -4.20850000      -0.24440000       1.90610000
H       -4.99190000      -1.95370000       0.27650000
H       -3.08120000      -2.39040000      -1.43630000
H       -3.04300000      -3.61480000      -0.18120000
