22
Properties=species:S:1:pos:R:3 gdb_92883=T pbc="F F F"
C        0.07730000       1.57280000       0.09470000
C        0.00630000       0.05890000      -0.01630000
C        0.68610000      -0.50580000      -1.25950000
C        0.72240000      -2.04900000      -1.22550000
C       -0.64770000      -2.65660000      -1.57720000
C        1.77500000      -2.56780000      -2.21750000
N        1.11350000      -2.54000000       0.10520000
C        1.05550000      -1.75970000       1.09750000
O        0.62820000      -0.47680000       1.17110000
H        1.11760000       1.91190000       0.07470000
H       -0.45650000       2.03820000      -0.73950000
H       -0.37720000       1.91090000       1.02990000
H       -1.04520000      -0.25860000       0.00690000
H        0.16860000      -0.14540000      -2.15550000
H        1.71200000      -0.11920000      -1.29950000
H       -0.91810000      -2.42440000      -2.61300000
H       -0.61340000      -3.74330000      -1.46190000
H       -1.43900000      -2.28020000      -0.92200000
H        2.76880000      -2.19270000      -1.95540000
H        1.81030000      -3.66030000      -2.19250000
H        1.54180000      -2.24660000      -3.23850000
H        1.38620000      -2.09020000       2.08150000
