17
Properties=species:S:1:pos:R:3 gdb_37697=T pbc="F F F"
C       -0.04020000       1.43960000      -0.00840000
C        1.42550000       1.85910000       0.01340000
C        2.41480000       0.95740000       0.04680000
C        2.11340000      -0.52700000       0.06450000
C        0.95720000      -0.86790000      -0.91270000
C        0.20460000      -1.82420000       0.04800000
O       -1.05640000      -1.04200000       0.01120000
C        0.00370000      -0.05410000       0.01610000
C        0.92000000      -0.83750000       1.00640000
H       -0.57850000       1.84820000       0.85680000
H       -0.54440000       1.82030000      -0.90620000
H        1.63890000       2.92360000       0.00070000
H        3.45070000       1.28250000       0.06170000
H        2.99350000      -1.17130000       0.09170000
H        0.94870000      -0.86740000      -2.00280000
H        0.12010000      -2.90980000       0.06350000
H        0.86930000      -0.80260000       2.09480000
