16
Properties=species:S:1:pos:R:3 gdb_131816=T pbc="F F F"
O       -0.07020000       1.43620000      -0.10790000
C        0.01920000       0.02450000      -0.03810000
C       -1.40240000      -0.52190000       0.00980000
C       -1.42760000      -2.05810000       0.09550000
C       -2.81350000      -2.60240000       0.09320000
N       -3.39780000      -3.19610000       1.09470000
O       -4.63660000      -3.50300000       0.64100000
N       -4.75410000      -3.06280000      -0.67430000
N       -3.66670000      -2.52560000      -0.99900000
H        0.82100000       1.79620000      -0.13630000
H        0.54600000      -0.39000000      -0.91380000
H        0.57330000      -0.30020000       0.85840000
H       -1.91850000      -0.09140000       0.87470000
H       -1.94100000      -0.18920000      -0.88350000
H       -0.88970000      -2.48530000      -0.75920000
H       -0.92810000      -2.40410000       1.00490000
