18
Properties=species:S:1:pos:R:3 gdb_95666=T pbc="F F F"
C        1.07290000       1.41600000       0.01390000
C        0.02240000       0.31420000      -0.13570000
O        0.42320000      -0.47720000      -1.24790000
C       -0.33970000      -1.61460000      -1.47210000
O        0.21080000      -2.77460000      -0.87080000
C        0.23360000      -2.90240000       0.48890000
N        0.52400000      -4.02150000       1.02240000
C       -0.06810000      -1.76840000       1.37960000
C       -0.15980000      -0.45650000       1.13970000
H        2.04440000       0.97930000       0.25960000
H        1.16310000       1.96770000      -0.92500000
H        0.78910000       2.11390000       0.80610000
H       -0.94660000       0.79190000      -0.37290000
H       -1.37850000      -1.47350000      -1.14060000
H       -0.31110000      -1.82980000      -2.54210000
H        0.70810000      -4.71280000       0.29230000
H       -0.20450000      -2.11300000       2.39900000
H       -0.40150000       0.18190000       1.98810000
