15
Properties=species:S:1:pos:R:3 gdb_17838=T pbc="F F F"
O        0.12100000       0.22850000      -0.68960000
C        0.01570000       1.21730000      -0.01100000
O        1.06000000       1.75580000       0.63180000
C       -1.31760000       1.91670000       0.14710000
C       -2.09760000       2.09780000       1.44960000
C       -1.18490000       2.47460000       2.61770000
N       -0.52760000       3.53600000       1.77140000
H       -0.60200000       4.45900000       2.18170000
H        0.76030000       2.58500000       1.09010000
C       -1.54110000       3.29320000       0.70760000
H       -1.98330000       1.66320000      -0.67100000
H       -3.10870000       1.72470000       1.53880000
H       -1.74970000       2.90510000       3.44860000
H       -0.48780000       1.72190000       2.99700000
H       -2.00670000       4.10530000       0.16290000
