20
Properties=species:S:1:pos:R:3 gdb_37828=T pbc="F F F"
C        0.00280000       1.64790000       0.19940000
C        1.46350000       1.21890000       0.04990000
N        1.21810000      -0.08550000       0.86750000
C        1.87240000      -0.89320000      -0.25130000
C        1.14590000       0.16780000      -1.07650000
C        0.52270000       0.07580000      -2.45370000
C       -0.69310000      -0.88870000      -2.17850000
C       -1.09270000      -0.77100000      -0.65180000
C       -0.02120000       0.14090000      -0.08250000
H       -0.30620000       1.96300000       1.19980000
H       -0.40390000       2.30530000      -0.57400000
H        2.38440000       1.78290000       0.21170000
H        2.96720000      -0.86900000      -0.22340000
H        1.52060000      -1.93000000      -0.29970000
H        0.16090000       1.05820000      -2.77780000
H        1.17830000      -0.30860000      -3.24010000
H       -1.53560000      -0.66280000      -2.83780000
H       -0.39550000      -1.91870000      -2.39700000
H       -2.09100000      -0.34450000      -0.52180000
H       -1.10140000      -1.75500000      -0.17470000
