19
Properties=species:S:1:pos:R:3 gdb_48964=T pbc="F F F"
O       -0.24570000       0.36390000      -0.75890000
C        0.10400000       1.07410000       0.15750000
C        1.34560000       1.85990000       0.18660000
C        1.79190000       2.84060000       1.27280000
C        2.53740000       3.67090000       0.17690000
C        4.00500000       3.23250000       0.07060000
C        3.91790000       1.71700000      -0.26910000
C        2.48990000       1.53930000      -0.78410000
C        1.80100000       2.84710000      -0.91710000
H       -0.53500000       1.19280000       1.06360000
H        0.93800000       3.38440000       1.68680000
H        2.39950000       2.45400000       2.09920000
H        2.37990000       4.74850000       0.20400000
H        4.50100000       3.77790000      -0.73980000
H        4.56270000       3.42910000       0.99160000
H        4.64190000       1.43190000      -1.03790000
H        4.11710000       1.08710000       0.60380000
H        2.24240000       0.74610000      -1.47970000
H        1.21930000       3.18900000      -1.76230000
