20
Properties=species:S:1:pos:R:3 gdb_120785=T pbc="F F F"
O        0.40090000       1.00660000      -0.42390000
C        0.03050000      -0.29850000      -0.03160000
C       -1.46360000      -0.38160000       0.27720000
N       -2.18980000       0.08350000      -0.91010000
C       -2.72100000      -0.92240000      -1.83010000
C       -3.63880000      -0.09940000      -0.99580000
C       -4.43110000      -0.72260000       0.11410000
C       -5.39960000      -1.79740000      -0.14960000
O       -4.14360000      -2.07510000       0.47260000
H       -0.30620000       1.29580000      -1.01670000
H        0.28000000      -1.03940000      -0.81090000
H        0.61150000      -0.55390000       0.86120000
H       -1.74190000      -1.39750000       0.58880000
H       -1.69500000       0.30600000       1.09910000
H       -2.60370000      -0.71270000      -2.88950000
H       -2.61780000      -1.96660000      -1.54390000
H       -4.15390000       0.74470000      -1.45480000
H       -4.62190000      -0.07350000       0.97030000
H       -6.27160000      -1.91040000       0.49200000
H       -5.50860000      -2.17480000      -1.16480000
