17
Properties=species:S:1:pos:R:3 gdb_129933=T pbc="F F F"
N        0.08930000       1.38840000       0.27250000
C       -0.00880000       0.00380000       0.06460000
C       -1.11640000      -0.81580000      -0.00250000
N       -0.64100000      -2.08740000      -0.14800000
N        0.70150000      -2.15030000      -0.18300000
C        1.09170000      -0.88490000      -0.05110000
N        2.43260000      -0.45920000      -0.07170000
C        3.20710000      -0.57780000       1.17930000
C        3.47100000      -1.48090000       0.02900000
H        0.98270000       1.72790000      -0.06650000
H       -0.65500000       1.90910000      -0.17420000
H       -2.17250000      -0.60210000       0.03580000
H       -1.17210000      -2.92880000      -0.28180000
H        3.87140000       0.25420000       1.39270000
H        2.69480000      -1.00030000       2.03930000
H        3.14140000      -2.51120000       0.11300000
H        4.33740000      -1.31490000      -0.60460000
