20
Properties=species:S:1:pos:R:3 gdb_23370=T pbc="F F F"
C        0.90900000       0.40870000       0.23140000
C       -0.23820000      -0.21870000       1.04060000
O       -0.58920000       0.64010000       2.09980000
C       -1.42820000      -0.55400000       0.14360000
N       -2.46260000       0.15680000       0.38400000
O       -3.56650000      -0.11770000      -0.43660000
C       -1.22380000      -1.63090000      -0.85210000
C       -2.30460000      -2.61820000      -1.27240000
C       -1.80060000      -1.61390000      -2.26100000
H        1.73840000       0.63210000       0.90740000
H        1.27330000      -0.25630000      -0.55720000
H        0.57240000       1.34450000      -0.22440000
H        0.11770000      -1.17240000       1.46510000
H       -1.50180000       0.91410000       1.92620000
H       -4.22880000       0.49600000      -0.10250000
H       -0.23260000      -2.06590000      -0.78010000
H       -1.99260000      -3.65180000      -1.37180000
H       -3.29710000      -2.47200000      -0.87130000
H       -2.45690000      -0.79410000      -2.51760000
H       -1.14040000      -1.94400000      -3.05510000
