18
Properties=species:S:1:pos:R:3 gdb_89791=T pbc="F F F"
O        0.28660000       0.85750000      -0.80470000
C       -0.02620000      -0.22520000       0.03670000
C       -0.01030000       0.00710000       1.57910000
C       -1.39980000      -0.63200000       1.62380000
C       -1.85880000      -1.72320000       2.50880000
N       -2.48320000      -0.38600000       2.56870000
C       -1.55660000      -0.53470000       0.09240000
C       -2.42640000       0.62900000      -0.33280000
O       -3.28450000       0.54970000      -1.17230000
H        1.23960000       0.99140000      -0.79610000
H        0.53610000      -1.12630000      -0.23900000
H        0.78930000      -0.46220000       2.15850000
H       -0.03990000       1.07960000       1.80060000
H       -2.50190000      -2.50910000       2.12140000
H       -1.20040000      -2.03070000       3.31800000
H       -2.13750000       0.12960000       3.37490000
H       -1.88760000      -1.42960000      -0.43680000
H       -2.23080000       1.58260000       0.20210000
