18
Properties=species:S:1:pos:R:3 gdb_79054=T pbc="F F F"
C       -0.04330000       1.51600000       0.13560000
C       -0.04630000       0.02690000       0.03210000
C        0.11140000      -0.75820000      -1.04040000
C        0.10750000      -2.18210000      -0.59840000
C        0.97510000      -2.60920000       0.55880000
C        1.40930000      -1.45350000       1.44060000
O        2.54680000      -0.69370000       1.14060000
C       -0.04850000      -0.87830000       1.24090000
N       -0.48710000      -2.25980000       0.75420000
H        0.81970000       1.86190000       0.71840000
H       -0.00390000       1.99000000      -0.84880000
H       -0.93880000       1.87630000       0.65670000
H        0.22980000      -0.44490000      -2.07010000
H       -0.19520000      -2.96970000      -1.28230000
H        1.33860000      -3.62950000       0.63820000
H        1.52480000      -1.79500000       2.47090000
H        2.47470000      -0.42950000       0.21590000
H       -0.57430000      -0.52060000       2.12610000
