16
Properties=species:S:1:pos:R:3 gdb_51074=T pbc="F F F"
N       -0.07650000       1.26430000       0.06060000
C       -0.10840000       0.03740000      -0.21800000
O       -1.01400000      -0.75700000       0.42310000
C       -0.95570000      -2.11070000       0.17700000
C       -0.40600000      -3.23170000       1.13320000
C       -0.97290000      -4.02300000      -0.09300000
C       -2.19260000      -3.03850000      -0.04760000
C       -0.29500000      -2.94240000      -0.94580000
O        0.37830000      -2.80760000      -1.92070000
H        0.63220000       1.72800000      -0.50450000
H        0.50620000      -0.50160000      -0.94500000
H        0.66960000      -3.26940000       1.31150000
H       -0.98520000      -3.35010000       2.05070000
H       -0.99250000      -5.09720000      -0.23570000
H       -2.82760000      -3.15230000       0.83290000
H       -2.77050000      -2.89970000      -0.96230000
