21
Properties=species:S:1:pos:R:3 gdb_75471=T pbc="F F F"
C       -0.22690000       1.47430000       0.14370000
C       -0.03460000      -0.00330000       0.02990000
C        0.11060000      -0.74290000      -1.06610000
C        0.24240000      -2.19300000      -0.70520000
O        0.21420000      -2.22470000       0.71820000
C        0.00400000      -0.91020000       1.24440000
C        1.08440000      -0.57250000       2.24890000
C        0.77410000       0.33670000       3.41510000
C        1.00370000      -1.13450000       3.64350000
H        0.56750000       1.93390000       0.74270000
H       -0.23730000       1.95260000      -0.83900000
H       -1.17270000       1.71150000       0.64760000
H        0.12040000      -0.38200000      -2.08770000
H       -0.58230000      -2.80060000      -1.11370000
H        1.18020000      -2.64300000      -1.06740000
H       -0.96780000      -0.88700000       1.77290000
H        2.07670000      -0.49080000       1.81350000
H        1.53630000       1.03800000       3.73560000
H       -0.23980000       0.71180000       3.51230000
H        0.14540000      -1.75220000       3.88600000
H        1.92470000      -1.44560000       4.12300000
