14
Properties=species:S:1:pos:R:3 gdb_45913=T pbc="F F F"
N       -0.14570000       1.35560000      -0.07370000
C       -0.06080000       0.11540000       0.10670000
C       -1.23150000      -0.81500000      -0.05460000
N       -1.17980000      -1.85450000       0.95710000
C       -0.00970000      -2.53590000       1.17950000
N        0.02260000      -3.70060000       1.69180000
C        1.26640000      -1.78160000       0.84020000
O        2.35340000      -2.25840000       0.97380000
O        1.15480000      -0.48630000       0.40110000
H        0.76540000       1.80560000       0.03440000
H       -2.14120000      -0.22590000       0.05830000
H       -1.21700000      -1.22010000      -1.08060000
H       -2.00970000      -2.41720000       1.08350000
H        0.99550000      -3.97980000       1.82270000
