25
Properties=species:S:1:pos:R:3 gdb_122440=T pbc="F F F"
C       -0.04470000       1.58750000      -0.28140000
C       -0.01900000       0.09590000       0.06260000
C       -1.40050000      -0.56290000      -0.00710000
C       -1.38190000      -2.05740000       0.34200000
C       -2.75580000      -2.69010000       0.26840000
C       -3.32010000      -3.22290000      -1.04070000
C       -3.00070000      -4.16150000       0.10180000
C       -1.88010000      -5.17000000      -0.01280000
O       -4.09130000      -4.62170000       0.86600000
H        0.95460000       2.03030000      -0.22160000
H       -0.42210000       1.75330000      -1.29670000
H       -0.69540000       2.14060000       0.40520000
H        0.66560000      -0.42630000      -0.61940000
H        0.39690000      -0.04090000       1.06980000
H       -2.08680000      -0.04060000       0.67380000
H       -1.81910000      -0.43350000      -1.01430000
H       -0.69160000      -2.57350000      -0.33700000
H       -0.96920000      -2.18770000       1.35210000
H       -3.49710000      -2.21880000       0.90930000
H       -4.36600000      -3.03640000      -1.25810000
H       -2.66670000      -3.23070000      -1.90860000
H       -1.03690000      -4.78320000      -0.59020000
H       -1.51890000      -5.45830000       0.97980000
H       -2.23350000      -6.07780000      -0.51820000
H       -4.50050000      -5.34840000       0.38240000
