21
Properties=species:S:1:pos:R:3 gdb_70994=T pbc="F F F"
C       -0.01650000       1.58540000       0.07270000
C        0.03380000       0.07690000       0.03500000
C       -1.32210000      -0.80080000      -0.17270000
C       -0.23900000      -1.83820000      -0.60780000
C        0.45780000      -2.12540000       0.74660000
C        0.68510000      -0.66240000       1.21430000
O        0.14030000      -2.78590000      -1.65480000
C        1.31190000      -1.90680000      -1.89490000
C        0.50350000      -0.72430000      -1.25950000
H        0.99360000       2.00440000       0.14660000
H       -0.48780000       1.99590000      -0.82570000
H       -0.58590000       1.93680000       0.94110000
H       -1.92740000      -0.99510000       0.71950000
H       -1.93490000      -0.41670000      -0.98850000
H       -0.19690000      -2.69470000       1.41220000
H        1.38440000      -2.68990000       0.63170000
H        1.74480000      -0.40940000       1.31880000
H        0.19100000      -0.42540000       2.16200000
H        2.19140000      -2.27090000      -1.35640000
H        1.52710000      -1.82030000      -2.96240000
H       -0.10160000      -0.33780000      -2.08480000
