25
Properties=species:S:1:pos:R:3 gdb_115373=T pbc="F F F"
C       -0.30490000       1.53140000       0.00680000
C       -0.00360000       0.02450000       0.00200000
C        0.75740000      -0.42110000      -1.26450000
C        2.22940000       0.02020000      -1.27110000
C        2.96980000      -0.45680000      -0.01170000
C        4.42980000      -0.01690000      -0.02880000
O        5.09110000      -0.59670000       1.08840000
C        2.23800000       0.01770000       1.25510000
C        0.76840000      -0.42720000       1.25970000
H        0.60430000       2.14050000       0.00830000
H       -0.88790000       1.81580000      -0.87600000
H       -0.88530000       1.80960000       0.89320000
H       -0.97190000      -0.49300000       0.00320000
H        0.72210000      -1.51720000      -1.32770000
H        0.24850000      -0.04360000      -2.15970000
H        2.72510000      -0.36650000      -2.17010000
H        2.29210000       1.11540000      -1.33530000
H        2.97030000      -1.55750000      -0.01060000
H        4.89950000      -0.33620000      -0.97380000
H        4.48350000       1.08460000       0.00740000
H        5.99800000      -0.27820000       1.10010000
H        2.75470000      -0.36430000       2.13980000
H        2.29960000       1.11390000       1.31140000
H        0.26580000      -0.05510000       2.16060000
H        0.73410000      -1.52360000       1.31790000
