19
Properties=species:S:1:pos:R:3 gdb_86271=T pbc="F F F"
C        0.07690000       1.55510000      -0.04240000
C        0.07730000       0.03570000      -0.03510000
C        1.03320000      -0.73900000      -0.98400000
C        1.29400000      -1.76260000       0.15520000
O        2.58870000      -2.21890000       0.39360000
C        0.73550000      -0.69950000       1.18060000
O        1.83680000       0.07720000       1.66750000
C       -0.11520000      -1.15050000       2.26380000
C       -0.80670000      -1.54300000       3.16720000
H        1.08300000       1.94750000       0.12360000
H       -0.28640000       1.93110000      -1.00480000
H       -0.57420000       1.95550000       0.74180000
H       -0.94310000      -0.34460000      -0.14120000
H        0.62360000      -1.12130000      -1.92100000
H        1.93850000      -0.16360000      -1.20100000
H        0.63920000      -2.63460000       0.08900000
H        3.08400000      -1.44150000       0.68690000
H        2.02090000      -0.21810000       2.56510000
H       -1.42300000      -1.88900000       3.96010000
