15
Properties=species:S:1:pos:R:3 gdb_34723=T pbc="F F F"
C       -0.02750000      -1.22910000      -0.09010000
C       -0.02040000      -0.02980000      -0.01400000
C       -0.01810000       1.41860000       0.05470000
C       -0.41740000       2.02190000       1.40490000
C        0.89790000       2.13870000       2.16450000
O        1.93460000       1.66010000       1.32870000
C        1.40200000       2.07640000       0.08600000
O        1.09640000       3.45260000       0.25540000
C        0.33850000       3.34330000       1.44770000
H       -0.02660000      -2.28900000      -0.15310000
H       -0.59860000       1.85340000      -0.76460000
H       -1.37420000       1.85050000       1.87520000
H        1.05610000       2.00900000       3.22410000
H        2.09570000       1.90880000      -0.73160000
H        0.00280000       4.27730000       1.87230000
