15
Properties=species:S:1:pos:R:3 gdb_112407=T pbc="F F F"
O        0.05800000       1.38970000      -0.07450000
C        0.05570000      -0.01180000       0.05800000
C       -1.36660000      -0.56890000       0.07850000
O       -2.01520000      -0.25360000      -1.17490000
C       -2.41390000      -1.38920000      -1.80710000
O       -2.96130000      -1.42550000      -2.86780000
N       -2.06600000      -2.46560000      -0.99530000
C       -1.42710000      -2.08290000       0.17270000
N       -0.95260000      -2.75020000       1.13810000
H       -0.37720000       1.60070000      -0.90850000
H        0.62190000      -0.50730000      -0.74620000
H        0.53510000      -0.25760000       1.00910000
H       -1.93890000      -0.09450000       0.88110000
H       -2.26790000      -3.41110000      -1.27730000
H       -1.07630000      -3.75600000       1.01830000
