17
Properties=species:S:1:pos:R:3 gdb_66964=T pbc="F F F"
C        0.03770000       1.50710000       0.11190000
C        0.03440000       0.01350000       0.00850000
C       -0.90960000      -0.90930000       0.80170000
O       -1.07480000      -2.12920000       0.08100000
C        0.34140000      -2.04660000      -0.20980000
C        0.56630000      -1.04270000       0.97890000
C        0.45370000      -0.84230000      -1.20370000
C       -0.34390000      -0.84570000      -2.41520000
C       -0.99730000      -0.83220000      -3.42460000
H        1.03060000       1.92300000      -0.09320000
H       -0.66560000       1.94610000      -0.60430000
H       -0.25820000       1.83490000       1.11430000
H       -1.70320000      -0.56610000       1.45240000
H        0.81170000      -3.00790000      -0.40240000
H        1.23790000      -1.00180000       1.82520000
H        1.50950000      -0.65450000      -1.42710000
H       -1.58400000      -0.83280000      -4.30970000
