20
Properties=species:S:1:pos:R:3 gdb_109908=T pbc="F F F"
C        0.06750000       1.54650000      -0.20000000
C       -0.08510000       0.04000000       0.03320000
N       -1.46670000      -0.40860000       0.05230000
C       -2.21110000      -0.77220000       1.24570000
C       -2.45260000       0.39680000       2.21310000
C       -3.48690000      -1.33150000       0.66340000
C       -3.45030000      -1.29490000      -0.66820000
C       -2.14200000      -0.72740000      -1.10820000
O       -1.71700000      -0.57270000      -2.23780000
H        1.12720000       1.82050000      -0.22750000
H       -0.38310000       1.81990000      -1.15730000
H       -0.41620000       2.12810000       0.59060000
H        0.42350000      -0.50060000      -0.77230000
H        0.38370000      -0.25600000       0.97820000
H       -1.67740000      -1.56750000       1.79310000
H       -2.99350000       1.20400000       1.71160000
H       -3.04170000       0.06040000       3.07230000
H       -1.50590000       0.79290000       2.59160000
H       -4.29320000      -1.68430000       1.29400000
H       -4.20300000      -1.61660000      -1.37360000
