15
Properties=species:S:1:pos:R:3 gdb_66398=T pbc="F F F"
C       -0.05360000       1.59210000      -0.00190000
C        0.04590000       0.09750000      -0.00450000
C        0.65340000      -0.93180000      -0.92590000
O        1.11790000      -1.73070000       0.17910000
C        0.63900000      -0.76390000       1.07430000
N        0.76390000      -0.65640000       2.31120000
C       -0.84480000      -0.81830000      -0.88140000
C       -1.68910000      -1.85880000      -0.35730000
N       -2.37950000      -2.68900000       0.05540000
H        0.89430000       2.04010000       0.30940000
H       -0.30690000       1.97340000      -0.99520000
H       -0.82750000       1.92240000       0.69740000
H        1.27630000      -0.87140000      -1.80790000
H        1.27980000      -1.43990000       2.71410000
H       -1.27560000      -0.27710000      -1.72030000
