15
Properties=species:S:1:pos:R:3 gdb_3057=T pbc="F F F"
C       -0.02000000       1.42720000       0.18240000
C       -0.01150000      -0.01360000      -0.02600000
C        0.00300000      -1.20570000      -0.19190000
C       -0.01270000      -2.65100000      -0.39570000
C       -1.38640000      -3.26350000      -0.18000000
C       -1.54480000      -4.65010000       0.27150000
O       -1.75570000      -3.55430000       1.16510000
H        0.68610000       1.71950000       0.96760000
H        0.25790000       1.96590000      -0.73040000
H       -1.01290000       1.77810000       0.48470000
H        0.31790000      -2.88750000      -1.41680000
H        0.69430000      -3.14080000       0.28530000
H       -2.18420000      -2.81870000      -0.77550000
H       -2.43600000      -5.21310000      -0.00230000
H       -0.66020000      -5.25340000       0.47380000
