18
Properties=species:S:1:pos:R:3 gdb_44854=T pbc="F F F"
O        0.00870000       0.03530000       0.04820000
C       -0.00460000       1.23410000       0.03570000
C       -1.24940000       2.15510000       0.05340000
C       -0.60100000       3.56110000      -0.01490000
C        0.59050000       3.27810000      -0.96010000
C        1.19970000       2.19850000      -0.03940000
N        1.23070000       2.76400000       1.34310000
C        1.48490000       4.21500000       1.42690000
C        0.08840000       3.72590000       1.34010000
H       -1.87420000       1.93720000      -0.81940000
H       -1.85310000       1.97900000       0.94830000
H       -1.27290000       4.36910000      -0.30590000
H        0.27030000       2.86790000      -1.92220000
H        1.23610000       4.13300000      -1.15930000
H        2.14120000       1.72870000      -0.31730000
H        1.86400000       4.51710000       2.39860000
H        1.93980000       4.74110000       0.59480000
H       -0.53950000       3.72550000       2.22750000
