17
Properties=species:S:1:pos:R:3 gdb_67386=T pbc="F F F"
C       -0.03380000       1.50690000      -0.02970000
C       -0.00290000       0.01030000       0.00740000
C        0.47250000      -1.04570000      -0.96570000
C        1.27880000      -1.76160000       0.11280000
C        0.47600000      -0.93410000       1.15790000
O       -0.66040000      -1.68910000       1.59720000
C       -1.53320000      -1.80420000       0.54250000
O       -2.53250000      -2.45960000       0.59910000
C       -1.01500000      -0.94340000      -0.56610000
H        0.95750000       1.93270000       0.16110000
H       -0.36540000       1.86290000      -1.01020000
H       -0.72250000       1.90830000       0.72200000
H        0.73240000      -0.93570000      -2.01180000
H        1.20610000      -2.84920000       0.20620000
H        2.32900000      -1.45920000       0.08400000
H        0.98410000      -0.53050000       2.03080000
H       -1.70830000      -0.63360000      -1.33670000
