16
Properties=species:S:1:pos:R:3 gdb_13569=T pbc="F F F"
O       -0.48910000       1.24060000       0.13290000
C       -0.10860000      -0.11230000       0.01360000
C        0.85960000      -0.24920000      -1.14730000
O        1.23610000       0.71540000      -1.76880000
C        0.55140000      -0.65860000       1.27790000
C        1.50370000       0.22140000       2.07430000
C        0.15520000      -0.13820000       2.64270000
O       -0.85710000       0.79310000       2.82900000
H        0.03300000       1.71960000      -0.53310000
H       -0.99790000      -0.72370000      -0.21420000
H        1.21940000      -1.27160000      -1.37580000
H        0.78540000      -1.71830000       1.20740000
H        2.40170000      -0.22000000       2.49280000
H        1.61900000       1.24230000       1.72490000
H        0.13720000      -0.86830000       3.44620000
H       -0.89880000       1.33970000       2.03150000
