12
Properties=species:S:1:pos:R:3 gdb_23685=T pbc="F F F"
F        0.07650000       0.03110000       0.00250000
C       -0.06340000       1.34720000       0.01120000
C       -1.26840000       1.96940000       0.03070000
C       -1.24080000       3.39310000       0.03780000
C       -0.07800000       4.10410000       0.02580000
C        1.21430000       3.45060000       0.00490000
O        2.31790000       3.96170000      -0.00720000
N        1.10150000       2.03030000      -0.00090000
H       -2.18220000       1.39490000       0.04010000
H       -2.18830000       3.92230000       0.05340000
H       -0.06440000       5.18620000       0.03130000
H        1.97490000       1.52000000      -0.01530000
