21
Properties=species:S:1:pos:R:3 gdb_116146=T pbc="F F F"
C        0.00500000       1.50620000       0.14880000
C        0.03460000      -0.00480000      -0.00430000
C        0.71010000      -0.48080000      -1.29880000
C        0.87180000      -2.00240000      -1.26880000
C        1.73100000      -2.56720000      -2.39230000
O        1.86100000      -3.96930000      -2.28920000
O        1.51680000      -2.39480000      -0.05210000
C        0.82070000      -1.93000000       1.07620000
O        0.73950000      -0.53460000       1.12140000
H        1.02190000       1.91010000       0.14130000
H       -0.55800000       1.96360000      -0.67040000
H       -0.46740000       1.78370000       1.09490000
H       -0.99780000      -0.39810000       0.01670000
H        0.11570000      -0.17930000      -2.16870000
H        1.69750000      -0.01110000      -1.37940000
H       -0.12100000      -2.48310000      -1.30760000
H        1.26200000      -2.35460000      -3.35880000
H        2.71230000      -2.06580000      -2.37380000
H        2.12450000      -4.14060000      -1.37710000
H       -0.19560000      -2.36950000       1.09050000
H        1.38350000      -2.25030000       1.95530000
