17
Properties=species:S:1:pos:R:3 gdb_66122=T pbc="F F F"
O       -0.07350000       1.40610000       0.02390000
C        0.02380000      -0.01190000       0.01400000
C        0.65380000      -0.59580000       1.31700000
C       -0.01700000      -1.97060000       1.52300000
C       -1.39060000      -1.78580000       0.90460000
O       -2.02220000      -0.55540000       1.29240000
C       -1.38080000      -0.61730000       0.02030000
C        0.73740000      -0.47940000      -1.18150000
C        1.33930000      -0.84580000      -2.15610000
H        0.80390000       1.76300000      -0.15140000
H        1.74200000      -0.65340000       1.25670000
H        0.38000000       0.08670000       2.12340000
H        0.51510000      -2.76100000       0.98120000
H       -0.06290000      -2.26170000       2.57680000
H       -2.06140000      -2.62700000       0.75270000
H       -2.01670000      -0.49700000      -0.85160000
H        1.86510000      -1.16920000      -3.02070000
