19
Properties=species:S:1:pos:R:3 gdb_56759=T pbc="F F F"
C       -0.06350000       1.62160000       0.24670000
C       -0.01270000       0.08900000       0.05440000
C        0.79200000      -0.54690000       1.09740000
C        1.44520000      -1.06200000       1.96550000
C       -1.40710000      -0.50070000      -0.01550000
C       -2.25770000      -0.88440000       1.18120000
C       -1.94590000      -1.90370000       0.12820000
O       -2.83140000      -1.76830000      -0.98790000
C       -2.31480000      -0.43630000      -1.24530000
H        0.94360000       2.04610000       0.25140000
H       -0.63150000       2.08620000      -0.56530000
H       -0.54860000       1.87080000       1.19420000
H        0.47790000      -0.11200000      -0.90950000
H        2.03350000      -1.51830000       2.72280000
H       -1.69880000      -0.99150000       2.10540000
H       -3.27540000      -0.51690000       1.28400000
H       -1.46950000      -2.86300000       0.29300000
H       -3.10550000       0.32340000      -1.26370000
H       -1.76010000      -0.41590000      -2.19200000
