19
Properties=species:S:1:pos:R:3 gdb_65785=T pbc="F F F"
O       -0.26890000       1.23000000       0.03270000
C        0.00260000      -0.16700000       0.03650000
C        0.81060000      -0.54200000       1.28750000
C        2.12400000       0.18940000       1.41770000
O        2.49000000       1.08300000       0.68930000
C       -1.36060000      -0.87250000      -0.04700000
C       -1.59530000      -0.91460000      -1.55600000
O       -0.31940000      -1.22780000      -2.10280000
C        0.67910000      -0.61400000      -1.29610000
H        0.58990000       1.67030000      -0.02180000
H        0.23100000      -0.31340000       2.19450000
H        1.01670000      -1.62010000       1.33210000
H        2.76600000      -0.14170000       2.26320000
H       -1.29160000      -1.88970000       0.35180000
H       -2.11920000      -0.31780000       0.50870000
H       -2.29730000      -1.68820000      -1.87820000
H       -1.95200000       0.06130000      -1.91690000
H        1.10340000       0.26400000      -1.79900000
H        1.48400000      -1.34300000      -1.14220000
