16
Properties=species:S:1:pos:R:3 gdb_19939=T pbc="F F F"
C        0.34240000       1.55720000       0.25590000
O        1.46000000       1.42650000      -0.65410000
C        1.29550000      -0.00350000      -0.71300000
C        2.26880000      -0.78410000       0.15680000
O        2.44000000      -0.19290000       1.45030000
C        1.55380000      -1.30790000       1.33810000
C        0.08970000      -0.90320000       1.29910000
C       -0.02450000       0.06180000       0.10290000
H        0.66760000       1.85190000       1.25930000
H       -0.39690000       2.27370000      -0.12040000
H        1.27550000      -0.37480000      -1.74370000
H        3.15470000      -1.25540000      -0.26130000
H        1.86760000      -2.20830000       1.86220000
H       -0.53400000      -1.79130000       1.14610000
H       -0.22380000      -0.44490000       2.24370000
H       -0.93690000      -0.09550000      -0.47300000
