19
Properties=species:S:1:pos:R:3 gdb_47049=T pbc="F F F"
O        0.11060000       0.26220000       0.85470000
C        0.04620000       1.24800000       0.15870000
C       -1.26040000       2.00850000      -0.04450000
C       -1.26400000       2.92250000      -1.27600000
C       -0.09850000       3.90070000      -1.23310000
O       -0.11840000       4.72440000      -0.04050000
C        1.16830000       4.23000000       0.38740000
C        1.27300000       3.29020000      -0.83390000
C        1.27460000       1.78330000      -0.57890000
H       -2.07970000       1.28490000      -0.05310000
H       -1.40120000       2.63010000       0.84940000
H       -1.19540000       2.33520000      -2.20140000
H       -2.20470000       3.48150000      -1.32710000
H       -0.07910000       4.52380000      -2.13570000
H        1.91830000       5.02860000       0.43470000
H        1.11410000       3.73810000       1.36790000
H        2.08780000       3.55300000      -1.51140000
H        2.16750000       1.45820000      -0.03640000
H        1.29690000       1.25860000      -1.54600000
