18
Properties=species:S:1:pos:R:3 gdb_67617=T pbc="F F F"
C       -0.03720000       1.50500000       0.01210000
C       -0.01970000       0.01090000      -0.04620000
C        0.58900000      -0.86760000      -1.18440000
C        0.96550000      -2.15650000      -0.46170000
C        1.05650000      -1.86240000       1.02210000
N        0.04500000      -0.80540000       1.18500000
C       -1.05220000      -1.03050000       0.22170000
C       -0.45660000      -1.91660000      -0.91950000
O       -1.16710000      -2.65520000      -1.83770000
H        0.97890000       1.90750000       0.10210000
H       -0.48630000       1.92790000      -0.89290000
H       -0.61370000       1.84340000       0.87700000
H        1.02260000      -0.53030000      -2.11490000
H        1.57140000      -2.89370000      -0.97460000
H        0.79820000      -2.72240000       1.64990000
H        2.03580000      -1.48270000       1.33120000
H       -2.08620000      -0.96780000       0.54040000
H       -1.37810000      -3.50940000      -1.44320000
