20
Properties=species:S:1:pos:R:3 gdb_90562=T pbc="F F F"
C       -0.49120000       1.63720000       0.44380000
C       -0.16680000       0.14850000       0.37910000
C        0.59140000      -0.49900000      -0.81310000
N        1.51820000      -1.25730000       0.10880000
C        2.30580000      -0.26120000       0.86140000
C        2.93740000       0.98010000       0.25640000
C        4.13030000       0.61450000      -0.60770000
O        4.30710000       1.01660000      -1.72780000
C        0.90280000      -0.47850000       1.27700000
H        0.38600000       2.27200000       0.29780000
H       -1.22560000       1.90400000      -0.32390000
H       -0.92470000       1.89420000       1.41670000
H       -1.09540000      -0.41090000       0.53130000
H       -0.00620000      -1.20630000      -1.39010000
H        1.10200000       0.17100000      -1.51130000
H        3.01010000      -0.79150000       1.50370000
H        2.25960000       1.58710000      -0.34130000
H        3.30660000       1.60730000       1.08110000
H        4.85930000      -0.07500000      -0.12190000
H        0.68290000      -0.96900000       2.22200000
