19
Properties=species:S:1:pos:R:3 gdb_109551=T pbc="F F F"
C       -0.14630000       1.31480000       0.67200000
N       -0.07780000      -0.05490000       0.23300000
C       -1.13490000      -1.04010000      -0.04190000
C       -2.11350000      -0.65650000      -1.13630000
O       -2.91150000       0.40880000      -0.63200000
C        0.01540000      -2.01210000      -0.47610000
O       -0.04960000      -2.51130000      -1.78880000
C        0.94670000      -0.81940000      -0.27290000
N        2.17260000      -0.69080000      -0.57630000
H        0.87210000       1.69340000       0.79980000
H       -0.67670000       1.95110000      -0.04450000
H       -0.66280000       1.38680000       1.63610000
H       -1.68770000      -1.33880000       0.85730000
H       -1.56070000      -0.36120000      -2.03770000
H       -2.72270000      -1.53640000      -1.39260000
H       -3.52350000       0.67890000      -1.32280000
H        0.17560000      -2.82150000       0.24670000
H        0.80980000      -2.32900000      -2.18850000
H        2.52250000       0.25300000      -0.40620000
