17
Properties=species:S:1:pos:R:3 gdb_10945=T pbc="F F F"
C       -0.18900000       1.52300000       0.04700000
C        0.06720000       0.04640000      -0.00410000
C       -0.74380000      -0.98160000       0.75100000
C        0.73810000      -0.88000000       1.00760000
N        1.48010000      -1.51790000      -0.07050000
C        0.88500000      -0.65690000      -1.10860000
C        1.92460000      -2.79460000      -0.19600000
O        2.19270000      -3.33120000      -1.25050000
H        0.72380000       2.09390000      -0.15550000
H       -0.93950000       1.81910000      -0.69550000
H       -0.56350000       1.82520000       1.03000000
H       -1.37690000      -0.57270000       1.53310000
H       -1.14640000      -1.86060000       0.25380000
H        1.19280000      -0.67260000       1.96900000
H        0.33280000      -1.20100000      -1.88120000
H        1.62930000      -0.00750000      -1.58060000
H        2.05650000      -3.28140000       0.79290000
