15
Properties=species:S:1:pos:R:3 gdb_30638=T pbc="F F F"
C       -0.04750000       1.35690000      -0.04700000
O        0.02700000      -0.07480000       0.03900000
C        0.66660000      -0.54030000       1.11830000
O        1.16500000       0.12340000       1.98750000
N        0.68310000      -1.94150000       1.10410000
C        1.27180000      -2.73270000       2.08480000
C        1.06050000      -4.01530000       1.68580000
N        0.35930000      -4.05400000       0.48800000
C        0.14930000      -2.81010000       0.16680000
H        0.95480000       1.78920000      -0.08650000
H       -0.59240000       1.56470000      -0.96710000
H       -0.57910000       1.76360000       0.81610000
H        1.75980000      -2.28260000       2.93100000
H        1.36710000      -4.92300000       2.18180000
H       -0.36820000      -2.44570000      -0.70540000
