21
Properties=species:S:1:pos:R:3 gdb_70724=T pbc="F F F"
C        0.28150000       1.36970000      -0.27070000
C       -0.08390000      -0.06830000       0.06630000
C       -0.83380000      -0.29570000       1.38110000
C        0.60640000      -0.69180000       1.25570000
O        0.90280000      -2.05080000       1.29360000
C        1.75020000      -2.47380000       0.23340000
C        0.93970000      -3.00450000      -0.94640000
C       -0.06950000      -2.06480000      -1.54750000
C       -0.49240000      -0.87370000      -1.11890000
H        1.14090000       1.41100000      -0.94920000
H       -0.55540000       1.88080000      -0.76110000
H        0.53330000       1.93850000       0.62980000
H       -1.09500000       0.56480000       1.98830000
H       -1.54450000      -1.11370000       1.40360000
H        1.35060000      -0.06940000       1.75660000
H        2.40650000      -1.65170000      -0.08380000
H        2.38490000      -3.27320000       0.63200000
H        1.63740000      -3.33570000      -1.72940000
H        0.41280000      -3.91480000      -0.62390000
H       -0.54010000      -2.45060000      -2.45100000
H       -1.25180000      -0.37750000      -1.72520000
