17
Properties=species:S:1:pos:R:3 gdb_1930=T pbc="F F F"
C        0.00360000       1.57120000      -0.02910000
C        0.00030000       0.07270000       0.03730000
C        1.17090000      -0.80870000      -0.37260000
C        0.60160000      -0.92460000       1.01210000
C        1.34110000      -0.82810000       2.30580000
O       -0.56330000      -1.76610000       0.97570000
C       -1.23760000      -0.81640000       0.10880000
H        0.99030000       1.97520000       0.21980000
H       -0.24910000       1.92810000      -1.03510000
H       -0.72050000       2.00570000       0.66950000
H        1.03790000      -1.62460000      -1.07910000
H        2.11970000      -0.28490000      -0.44940000
H        2.14870000      -0.09380000       2.23350000
H        0.67190000      -0.53490000       3.12090000
H        1.78830000      -1.79460000       2.56530000
H       -2.08070000      -0.34830000       0.63240000
H       -1.59350000      -1.27810000      -0.82090000
