17
Properties=species:S:1:pos:R:3 gdb_66300=T pbc="F F F"
O        0.27440000       1.51880000       0.11960000
C       -0.01130000       0.16190000      -0.03680000
C       -1.51410000      -0.12210000      -0.25070000
C       -1.57560000      -1.35090000      -1.18150000
C       -0.40200000      -1.15720000      -2.15400000
C        0.65410000      -0.40650000      -1.35070000
O        1.80120000      -0.22100000      -1.64510000
C        0.54460000      -0.61850000       1.14070000
O        1.25230000      -0.09250000       1.96420000
H        0.94360000       1.57140000       0.82080000
H       -2.06010000      -0.26590000       0.68540000
H       -1.93320000       0.76170000      -0.74220000
H       -1.43980000      -2.27360000      -0.60590000
H       -2.53970000      -1.43300000      -1.68790000
H        0.00740000      -2.07370000      -2.58520000
H       -0.68750000      -0.50780000      -2.99200000
H        0.27380000      -1.69130000       1.20470000
