22
Properties=species:S:1:pos:R:3 gdb_121746=T pbc="F F F"
C       -0.31160000       1.30720000       0.03900000
C        0.26770000      -0.10840000      -0.03070000
C        0.67350000      -0.62280000       1.34120000
O        1.20580000      -1.94530000       1.17260000
C        1.61800000      -2.55170000       2.31620000
O        1.54910000      -2.05450000       3.41950000
N        2.12910000      -3.78040000       2.02760000
C        2.51910000      -4.71590000       3.06730000
C        1.44460000      -5.76010000       3.38300000
H        0.41600000       2.01590000       0.44920000
H       -0.59770000       1.66240000      -0.95500000
H       -1.20300000       1.34290000       0.67460000
H       -0.46590000      -0.79690000      -0.46600000
H        1.14350000      -0.12700000      -0.68980000
H        1.43300000       0.01790000       1.80280000
H       -0.18020000      -0.65990000       2.02690000
H        2.03340000      -4.10200000       1.07820000
H        3.45000000      -5.20910000       2.76400000
H        2.73630000      -4.11610000       3.95370000
H        0.52940000      -5.27480000       3.73410000
H        1.19790000      -6.35730000       2.49840000
H        1.79300000      -6.44420000       4.16360000
