15
Properties=species:S:1:pos:R:3 gdb_131865=T pbc="F F F"
O        0.00010000       1.36670000      -0.27680000
C       -0.01190000      -0.02180000       0.03140000
C       -1.47000000      -0.44000000       0.12470000
N       -2.13280000      -0.12550000      -1.13170000
C       -3.40660000      -0.51980000      -1.35900000
N       -4.08260000      -1.40720000      -0.67140000
O       -5.27890000      -1.48360000      -1.34720000
N       -5.25790000      -0.61490000      -2.40690000
N       -4.14450000      -0.02800000      -2.42990000
H        0.90000000       1.62890000      -0.48990000
H        0.48890000      -0.60680000      -0.75320000
H        0.48590000      -0.22910000       0.98940000
H       -1.53920000      -1.51620000       0.30730000
H       -1.95010000       0.07220000       0.97110000
H       -1.87190000       0.76340000      -1.53440000
