13
Properties=species:S:1:pos:R:3 gdb_129212=T pbc="F F F"
N       -0.09300000       1.25160000      -0.63490000
C       -0.03000000       0.07250000      -0.17620000
N        1.16330000      -0.59750000       0.16780000
N        1.43970000      -1.87340000       0.45380000
C        0.64480000      -2.85930000       0.18820000
C       -0.64710000      -2.83470000      -0.48600000
N       -1.49650000      -1.87950000      -0.53830000
C       -1.30310000      -0.69340000       0.16930000
O       -2.09780000      -0.26140000       0.96060000
H        0.83070000       1.64620000      -0.82800000
H        1.95840000       0.00300000       0.34080000
H        1.06310000      -3.83580000       0.41600000
H       -0.90330000      -3.75260000      -1.02110000
