19
Properties=species:S:1:pos:R:3 gdb_83839=T pbc="F F F"
C       -0.22440000       1.47220000       0.25680000
C        0.01550000      -0.00240000       0.02030000
C        0.54450000      -0.59560000      -1.25870000
C        1.06510000       0.27690000      -2.39710000
O        2.48100000       0.38300000      -2.40770000
C        2.98580000       0.97500000      -1.23000000
C        2.64460000       0.18390000       0.03880000
O        3.38130000       0.20570000       0.99940000
C        1.40290000      -0.64380000      -0.00350000
H        0.50500000       2.11380000      -0.24210000
H       -1.21750000       1.76160000      -0.10420000
H       -0.17870000       1.69840000       1.32680000
H       -0.71350000      -0.63090000       0.52560000
H        0.10720000      -1.53880000      -1.56950000
H        0.79820000      -0.17240000      -3.35650000
H        0.61730000       1.28280000      -2.36920000
H        4.07410000       1.01090000      -1.31790000
H        2.62660000       2.01410000      -1.11620000
H        1.50140000      -1.57740000       0.53980000
