21
Properties=species:S:1:pos:R:3 gdb_108639=T pbc="F F F"
C        0.22810000       1.54530000      -0.12810000
C        0.05440000       0.06030000      -0.02190000
C       -1.06490000      -0.67770000       0.06720000
C       -2.51140000      -0.28910000       0.12120000
O       -2.70010000       1.10190000       0.31840000
C       -0.75830000      -2.14530000       0.05130000
C       -0.11220000      -2.66180000      -1.22050000
C        0.74960000      -2.25080000      -0.05490000
C        1.29200000      -0.82780000      -0.02660000
H        0.86080000       1.91720000       0.68930000
H        0.74990000       1.80590000      -1.05890000
H       -0.72330000       2.07120000      -0.10120000
H       -3.00040000      -0.62640000      -0.81080000
H       -2.98850000      -0.86480000       0.93500000
H       -3.64380000       1.27960000       0.27910000
H       -1.35080000      -2.82700000       0.65430000
H       -0.18260000      -3.72510000      -1.42710000
H       -0.14820000      -2.02490000      -2.09930000
H        1.28760000      -3.02920000       0.47300000
H        1.94430000      -0.60650000      -0.88270000
H        1.90030000      -0.64690000       0.87150000
