21
Properties=species:S:1:pos:R:3 gdb_84711=T pbc="F F F"
C       -0.13360000       1.61460000      -0.07740000
C        0.01040000       0.08720000      -0.01700000
C        0.58390000      -0.55150000      -1.26530000
C        1.43020000      -1.54230000      -0.99030000
C        1.62590000      -1.73750000       0.49480000
C        3.09200000      -1.64220000       1.00300000
O        3.13030000      -0.55830000       1.92210000
C        2.15280000       0.37460000       1.49150000
C        0.93130000      -0.47770000       1.10080000
H        0.81920000       2.11040000      -0.28480000
H       -0.83180000       1.90110000      -0.87090000
H       -0.52520000       2.01260000       0.86460000
H       -1.00030000      -0.31940000       0.13950000
H        0.29040000      -0.23580000      -2.26170000
H        1.93030000      -2.16170000      -1.72800000
H        1.16750000      -2.67370000       0.83330000
H        3.42910000      -2.53770000       1.53290000
H        3.77990000      -1.45960000       0.16240000
H        1.96770000       1.06850000       2.31510000
H        2.52320000       0.94870000       0.62700000
H        0.36650000      -0.71940000       2.00440000
