24
Properties=species:S:1:pos:R:3 gdb_7822=T pbc="F F F"
C       -0.03190000       1.56780000       0.00540000
C        0.01780000       0.03700000      -0.00750000
C        0.69050000      -0.50060000      -1.28210000
C        0.76390000      -2.03300000      -1.29010000
C        1.46240000      -2.56720000      -0.03290000
C        0.79890000      -2.05410000       1.25650000
C        1.51450000      -2.57200000       2.50770000
C        0.72410000      -0.51790000       1.24110000
H        0.97890000       1.99300000      -0.00400000
H       -0.56300000       1.95680000      -0.87010000
H       -0.54050000       1.94290000       0.90010000
H       -1.01780000      -0.33670000       0.00320000
H        0.15400000      -0.14060000      -2.16840000
H        1.70790000      -0.08730000      -1.34690000
H       -0.25410000      -2.44420000      -1.34120000
H        1.28330000      -2.38280000      -2.18970000
H        1.47010000      -3.66400000      -0.03860000
H        2.51580000      -2.25020000      -0.03960000
H       -0.23340000      -2.43660000       1.27260000
H        2.55170000      -2.21760000       2.54130000
H        1.01790000      -2.22930000       3.42200000
H        1.53770000      -3.66700000       2.52920000
H        1.74600000      -0.11000000       1.28430000
H        0.21440000      -0.16150000       2.14560000
