13
Properties=species:S:1:pos:R:3 gdb_1390=T pbc="F F F"
C       -0.03630000       1.49070000       0.02400000
C        0.01650000       0.03690000       0.00090000
C        0.06600000      -1.16560000      -0.01480000
C        0.08780000      -2.63430000      -0.03460000
O       -1.19980000      -3.20050000       0.19930000
C        0.68670000      -3.13470000      -1.28260000
C        1.15040000      -3.55780000      -2.30680000
H        0.71590000       1.90220000       0.70560000
H        0.14720000       1.91170000      -0.97040000
H       -1.01720000       1.84380000       0.36060000
H        0.69430000      -2.99250000       0.80740000
H       -1.77720000      -2.89240000      -0.50900000
H        1.56710000      -3.93150000      -3.20950000
