17
Properties=species:S:1:pos:R:3 gdb_64917=T pbc="F F F"
C       -0.03340000       1.57030000      -0.06580000
C       -0.00690000       0.06210000       0.00950000
N        1.29480000      -0.61400000      -0.17320000
C        0.67340000      -0.67690000       1.15330000
C        1.37090000       0.06340000       2.28210000
C        0.11010000      -1.94810000       1.57340000
N       -0.29530000      -2.96730000       1.94090000
C       -1.18950000      -0.62320000      -0.61430000
O       -2.11510000      -0.03220000      -1.10580000
H        0.92220000       2.00100000       0.23130000
H       -0.24780000       1.87600000      -1.09300000
H       -0.82730000       1.97390000       0.56830000
H        1.18690000      -1.49670000      -0.67300000
H        1.87350000       0.95190000       1.90170000
H        0.65360000       0.35510000       3.05390000
H        2.12230000      -0.58650000       2.73920000
H       -1.13560000      -1.73410000      -0.61840000
