14
Properties=species:S:1:pos:R:3 gdb_31184=T pbc="F F F"
C        0.02290000       1.43900000      -0.06150000
O        0.01810000       0.00440000      -0.02790000
C        0.58870000      -0.63880000      -1.02900000
C        0.73740000      -1.98370000      -1.27390000
C        0.27390000      -3.08290000      -0.44010000
O        0.41980000      -4.25930000      -0.68280000
N        1.42430000      -2.11540000      -2.48650000
C        1.63990000      -0.91930000      -2.88380000
O        1.15330000       0.06170000      -2.03660000
H        1.04690000       1.82220000      -0.06590000
H       -0.50970000       1.80680000      -0.94280000
H       -0.49160000       1.75100000       0.84630000
H       -0.24960000      -2.73990000       0.48000000
H        2.13890000      -0.56480000      -3.77100000
