17
Properties=species:S:1:pos:R:3 gdb_16486=T pbc="F F F"
C       -0.06710000       1.46110000      -0.01590000
C        0.08410000      -0.02510000       0.07500000
C        0.83790000      -0.84380000      -0.92390000
C        1.08870000      -2.23110000      -0.36040000
C       -0.30970000      -2.05130000       0.25180000
C       -0.17650000      -0.90400000       1.27800000
O        0.82970000      -0.93590000       2.26370000
N       -0.66160000      -0.98340000      -0.83300000
H        0.74860000       1.96450000       0.51410000
H       -0.05040000       1.79000000      -1.05930000
H       -1.01450000       1.78800000       0.42550000
H        1.30060000      -0.37880000      -1.78780000
H        1.08470000      -2.98400000      -1.15240000
H        1.92980000      -2.38850000       0.31990000
H       -0.98370000      -2.89040000       0.41530000
H       -1.15860000      -0.65970000       1.70560000
H        0.48930000      -1.39600000       3.03730000
