16
Properties=species:S:1:pos:R:3 gdb_127552=T pbc="F F F"
C       -0.04300000       1.42090000       0.04260000
N       -0.02360000      -0.02900000       0.01810000
N        0.03090000      -0.71070000      -1.12880000
C        0.07690000      -1.97950000      -0.73460000
C        0.04990000      -2.01850000       0.67160000
N       -0.01240000      -0.75480000       1.12030000
C        0.07650000      -3.20370000       1.55600000
C        0.02940000      -2.95900000       3.04910000
O        0.13450000      -4.31620000       1.07270000
H        0.94730000       1.81800000      -0.19700000
H       -0.76240000       1.78030000      -0.69430000
H       -0.33410000       1.73250000       1.04440000
H        0.12090000      -2.79360000      -1.43870000
H       -0.87950000      -2.41010000       3.31560000
H        0.05810000      -3.91560000       3.57150000
H        0.87270000      -2.33350000       3.35880000
