19
Properties=species:S:1:pos:R:3 gdb_70875=T pbc="F F F"
C       -0.17530000       1.54660000      -0.07610000
C       -0.04830000       0.06260000       0.02640000
C        0.07700000      -1.06260000      -0.95220000
O        1.22660000      -1.66030000      -0.35940000
C        0.86780000      -0.93340000       0.86320000
C        2.03050000      -0.61470000       1.75010000
C       -0.41380000      -1.67180000       1.34850000
C       -1.05660000      -1.07270000       0.09890000
O       -2.39290000      -0.96410000      -0.22310000
H        0.75620000       2.01060000      -0.41830000
H       -0.96380000       1.80770000      -0.78940000
H       -0.44380000       1.99680000       0.88660000
H       -0.07260000      -1.11760000      -2.02360000
H        2.78230000      -0.03140000       1.21090000
H        1.70350000      -0.04480000       2.62500000
H        2.50090000      -1.54030000       2.09940000
H       -0.33490000      -2.75950000       1.45250000
H       -0.82180000      -1.22130000       2.25750000
H       -2.67700000      -1.78880000      -0.63340000
