18
Properties=species:S:1:pos:R:3 gdb_98211=T pbc="F F F"
C       -0.22210000       1.31560000       0.05840000
O       -0.15970000      -0.10990000       0.20770000
C        0.74840000      -0.55900000       1.08520000
O        1.49890000       0.14520000       1.71090000
C        0.75060000      -2.10540000       1.15460000
N        1.80430000      -2.63550000       2.01760000
C       -0.56370000      -2.59800000       1.56260000
C       -1.63660000      -2.99590000       1.93420000
C       -2.93560000      -3.48650000       2.37070000
H        0.74030000       1.70940000      -0.27780000
H       -0.99430000       1.50200000      -0.68770000
H       -0.48440000       1.78930000       1.00770000
H        0.94610000      -2.44200000       0.12550000
H        2.65010000      -2.09510000       1.84980000
H        1.55270000      -2.44380000       2.98360000
H       -2.93720000      -4.57830000       2.46030000
H       -3.21110000      -3.07190000       3.34640000
H       -3.72090000      -3.21020000       1.65870000
