13
Properties=species:S:1:pos:R:3 gdb_123987=T pbc="F F F"
C        0.01540000       1.52580000      -0.04980000
N        1.38400000       2.02200000       0.11130000
C        2.35780000       1.24050000       0.25070000
O        2.38200000      -0.14550000       0.28400000
C        1.16350000      -0.71460000       0.14330000
N        0.99950000      -2.01020000       0.15100000
O       -0.37750000      -2.16580000      -0.01860000
C       -0.96030000      -0.95630000      -0.11820000
C       -0.03320000       0.02840000      -0.02320000
H       -0.59410000       1.97120000       0.74620000
H       -0.37590000       1.93320000      -0.99020000
H        3.37290000       1.60650000       0.37030000
H       -2.03100000      -0.96600000      -0.25250000
