19
Properties=species:S:1:pos:R:3 gdb_103122=T pbc="F F F"
C       -0.09910000       0.74980000      -2.16390000
C       -0.00270000      -0.34120000      -1.11750000
C        1.30390000      -0.66230000      -0.35990000
C        2.53210000       0.13370000      -0.56440000
O        3.64280000      -0.34580000      -0.58040000
C        0.08050000      -0.02840000       0.33000000
O        0.14410000       1.32380000       0.66690000
C       -0.66700000      -0.84360000       1.35510000
O       -0.01940000      -0.60680000       2.60230000
H        0.34150000       1.68530000      -1.81750000
H        0.39900000       0.44910000      -3.09070000
H       -1.15010000       0.94920000      -2.39730000
H       -0.56450000      -1.23940000      -1.36310000
H        1.50190000      -1.71070000      -0.16150000
H        2.38010000       1.22470000      -0.69070000
H        0.40020000       1.34450000       1.59890000
H       -1.71380000      -0.50680000       1.38650000
H       -0.65220000      -1.90930000       1.08610000
H       -0.61450000      -0.86000000       3.31340000
