19
Properties=species:S:1:pos:R:3 gdb_97809=T pbc="F F F"
C        0.17660000       0.76230000       0.93910000
O       -0.04850000      -0.01670000      -0.22450000
C       -1.29090000      -0.62230000      -0.23510000
C       -1.43410000      -1.85010000      -1.05910000
C       -1.48940000      -1.97170000       0.46690000
C       -0.40650000      -2.58130000       1.17570000
C        0.48960000      -3.09920000       1.79590000
C        1.61950000      -3.66650000       2.52820000
O        2.40200000      -2.69300000       3.21100000
H        1.16480000       1.21510000       0.83140000
H       -0.57200000       1.56300000       1.03470000
H        0.15400000       0.14460000       1.84560000
H       -2.13510000       0.06760000      -0.17700000
H       -2.35040000      -2.00810000      -1.61590000
H       -0.53080000      -2.21660000      -1.53170000
H       -2.47490000      -2.13150000       0.89610000
H        1.26010000      -4.35350000       3.30270000
H        2.24060000      -4.26330000       1.84090000
H        2.64000000      -2.01900000       2.56590000
