17
Properties=species:S:1:pos:R:3 gdb_90053=T pbc="F F F"
C       -0.47180000       1.51410000      -0.03220000
C       -0.00140000       0.06730000       0.00460000
C        1.18070000      -0.35720000      -0.96150000
C        2.04000000      -0.47200000       0.29810000
O        2.33960000       0.90910000       0.79640000
C        1.93840000       0.22490000       2.01510000
C        0.81220000      -0.48690000       1.25990000
C        2.91390000      -0.96580000       1.50360000
O        3.74050000      -1.73400000       1.84340000
H        0.36650000       2.20580000       0.05640000
H       -0.99950000       1.72070000      -0.97020000
H       -1.16860000       1.71070000       0.78970000
H       -0.85910000      -0.59630000      -0.13220000
H        0.99880000      -1.31640000      -1.45040000
H        1.52950000       0.37500000      -1.69220000
H        1.97330000       0.77720000       2.95460000
H        0.43660000      -1.42700000       1.66880000
