18
Properties=species:S:1:pos:R:3 gdb_73143=T pbc="F F F"
O        0.25450000       1.38990000      -0.00130000
C       -0.00520000       0.01480000       0.02280000
C       -1.36720000      -0.35380000       0.63080000
O       -0.75820000      -1.42110000       1.39650000
C        0.57440000      -0.90260000       1.13980000
C        1.54990000      -1.87360000       0.47720000
N        1.38040000      -1.78830000      -0.99210000
C        0.02860000      -2.13940000      -1.44180000
C        0.39510000      -0.71030000      -1.26020000
H        1.10190000       1.53710000      -0.43540000
H       -1.76060000       0.43900000       1.27830000
H       -2.15040000      -0.71540000      -0.04210000
H        0.97880000      -0.39550000       2.02330000
H        2.57820000      -1.57590000       0.71150000
H        1.40860000      -2.90160000       0.82440000
H       -0.02300000      -2.54870000      -2.44730000
H       -0.64950000      -2.59120000      -0.72380000
H        0.57410000      -0.08280000      -2.13050000
