23
Properties=species:S:1:pos:R:3 gdb_122448=T pbc="F F F"
C       -0.16410000       1.54580000      -0.28230000
C       -0.03650000       0.05900000       0.00200000
O       -1.33210000      -0.50260000       0.05310000
C       -1.32730000      -1.88900000       0.31380000
C       -2.75820000      -2.36020000       0.34650000
O       -3.33600000      -2.84610000      -0.87070000
C       -3.18560000      -3.76590000       0.22470000
C       -2.19700000      -4.89270000       0.00370000
C       -4.49010000      -4.18700000       0.87030000
H        0.82480000       2.01140000      -0.32930000
H       -0.67240000       1.71020000      -1.23650000
H       -0.74360000       2.03870000       0.50350000
H        0.56130000      -0.43520000      -0.78270000
H        0.48880000      -0.11020000       0.95820000
H       -0.76270000      -2.42860000      -0.46040000
H       -0.84450000      -2.09480000       1.28670000
H       -3.40700000      -1.68430000       0.90720000
H       -1.30420000      -4.55500000      -0.52430000
H       -1.89290000      -5.33390000       0.95920000
H       -2.66210000      -5.68470000      -0.59340000
H       -4.98740000      -4.95010000       0.26140000
H       -4.31530000      -4.61410000       1.86390000
H       -5.16650000      -3.33490000       0.96990000
