11
Properties=species:S:1:pos:R:3 gdb_130885=T pbc="F F F"
O       -0.97530000       1.39640000       0.06220000
C        0.11650000       1.04010000      -0.28190000
C        1.37020000       1.87000000      -0.09900000
N        2.47010000       1.33520000      -0.52860000
C        3.63970000       2.07460000      -0.37460000
O        4.74350000       1.74040000      -0.71060000
N        3.41270000       3.32610000       0.24610000
N        2.25170000       3.81670000       0.66600000
N        1.20270000       3.10760000       0.50670000
H        0.32720000       0.06850000      -0.76960000
H        4.20860000       3.93440000       0.40000000
