19
Properties=species:S:1:pos:R:3 gdb_99907=T pbc="F F F"
C       -0.14660000       1.55850000       0.00530000
N       -0.02630000       0.09910000      -0.00380000
C        0.74160000      -0.49360000       1.09590000
C        2.20780000      -0.03340000       1.06190000
C        0.15510000      -0.13100000       2.41990000
N       -0.35550000       0.18180000       3.40930000
C        0.60580000      -2.01640000       0.95090000
C        1.55970000      -2.84740000       0.21380000
O        1.53110000      -2.83540000       1.64730000
H        0.82370000       2.01640000      -0.20440000
H       -0.82800000       1.85040000      -0.79770000
H       -0.52740000       1.97010000       0.95270000
H       -0.95780000      -0.30550000      -0.00470000
H        2.30390000       0.99830000       1.40400000
H        2.80600000      -0.67110000       1.71550000
H        2.58130000      -0.09730000       0.03730000
H       -0.42900000      -2.35960000       1.01520000
H        1.21190000      -3.76820000      -0.25070000
H        2.44190000      -2.40170000      -0.23730000
