17
Properties=species:S:1:pos:R:3 gdb_50675=T pbc="F F F"
O        0.15730000      -0.19150000      -0.03820000
C        0.09760000       1.01060000      -0.05440000
C        1.30520000       1.92060000       0.02330000
C        1.38790000       2.92890000      -1.14830000
C        1.99070000       4.22680000      -0.52190000
N        2.26250000       3.95240000       0.90160000
C        1.36510000       2.85960000       1.27810000
C        0.03720000       3.39990000       1.62560000
N       -1.01320000       3.80900000       1.87920000
H       -0.87570000       1.54260000      -0.13590000
H        2.19310000       1.28390000       0.05910000
H        1.99960000       2.52920000      -1.95960000
H        0.39290000       3.12670000      -1.56010000
H        2.90940000       4.55020000      -1.01560000
H        1.27220000       5.04860000      -0.59600000
H        3.21590000       3.62510000       1.01440000
H        1.74960000       2.33340000       2.15580000
