14
Properties=species:S:1:pos:R:3 gdb_84206=T pbc="F F F"
O        0.10580000       1.43390000       0.18920000
C       -0.02430000       0.04300000       0.03700000
C       -1.43730000      -0.45340000      -0.10780000
C       -1.48830000      -1.25900000      -1.18370000
N       -0.25050000      -1.32320000      -1.84690000
C        0.64920000      -0.46000000      -1.26500000
O        1.73420000      -0.11770000      -1.67100000
C       -2.63260000      -2.00670000      -1.70910000
O       -2.57140000      -2.67850000      -2.71480000
H        0.97770000       1.65820000      -0.16530000
H        0.45700000      -0.49700000       0.87570000
H       -2.24860000      -0.24500000       0.57370000
H       -0.14580000      -1.74400000      -2.75790000
H       -3.56510000      -1.90100000      -1.11980000
