20
Properties=species:S:1:pos:R:3 gdb_12415=T pbc="F F F"
C       -0.00500000       1.55250000      -0.00510000
C        0.05380000       0.02330000       0.01180000
C        0.73040000      -0.53510000      -1.24880000
O        0.76020000      -1.95430000      -1.25570000
C        1.49110000      -2.47510000      -0.15970000
C        0.86600000      -2.05730000       1.17390000
C        0.76150000      -0.52670000       1.26200000
O        2.05390000       0.07810000       1.31880000
H        1.00020000       1.98150000      -0.00590000
H       -0.53720000       1.91460000      -0.89100000
H       -0.52880000       1.93350000       0.87800000
H       -0.96890000      -0.37570000       0.03310000
H        0.17550000      -0.23840000      -2.14410000
H        1.75190000      -0.13100000      -1.32920000
H        1.48480000      -3.56290000      -0.27390000
H        2.53690000      -2.13140000      -0.20120000
H       -0.13660000      -2.49290000       1.25990000
H        1.46180000      -2.44650000       2.01060000
H        0.17990000      -0.24500000       2.15450000
H        2.51230000      -0.26980000       2.08970000
