25
Properties=species:S:1:pos:R:3 gdb_111283=T pbc="F F F"
C        0.14540000       0.86610000      -1.54600000
C       -0.17380000       0.56030000      -0.07850000
C       -1.45460000      -0.25650000       0.08120000
C       -1.47080000      -1.71300000      -0.40970000
C       -0.56420000      -2.57480000       0.43040000
C       -1.92060000      -2.20940000       0.96840000
C       -2.95550000      -3.23550000       1.33550000
C       -1.91150000      -0.76450000       1.50660000
C       -1.08700000      -0.44560000       2.75010000
H        1.06100000       1.45790000      -1.64190000
H        0.28340000      -0.05690000      -2.11940000
H       -0.66730000       1.43010000      -2.01820000
H        0.67350000       0.03120000       0.37290000
H       -0.27500000       1.50130000       0.47820000
H       -2.27770000       0.30230000      -0.37870000
H       -1.81310000      -2.04140000      -1.38500000
H       -0.47130000      -3.60350000       0.09470000
H        0.35100000      -2.17790000       0.86170000
H       -2.89990000      -4.11000000       0.67840000
H       -2.82070000      -3.59140000       2.36480000
H       -3.96950000      -2.82490000       1.25980000
H       -2.94320000      -0.43870000       1.68080000
H       -0.04800000      -0.77550000       2.65710000
H       -1.07590000       0.63070000       2.95460000
H       -1.51110000      -0.94220000       3.63010000
