21
Properties=species:S:1:pos:R:3 gdb_117370=T pbc="F F F"
C        2.52640000       1.33050000       0.26850000
C        2.48430000      -0.18180000       0.38270000
O        2.09700000      -0.70130000      -0.89930000
C        1.98470000      -2.04050000      -1.00200000
N        2.19410000      -2.80520000      -0.01160000
C        1.60510000      -2.41010000      -2.42680000
C        1.18140000      -3.84900000      -2.58530000
C        1.47910000      -4.60230000      -3.82610000
N        2.18640000      -4.93060000      -2.57490000
H        3.24850000       1.64640000      -0.49000000
H        1.54520000       1.72910000      -0.00540000
H        2.82040000       1.76790000       1.22730000
H        3.45730000      -0.60150000       0.65950000
H        1.76490000      -0.51820000       1.13640000
H        2.07130000      -3.78100000      -0.27420000
H        0.80570000      -1.73410000      -2.75240000
H        2.46350000      -2.19170000      -3.07650000
H        0.27730000      -4.11390000      -2.04010000
H        0.79260000      -5.36680000      -4.17770000
H        2.02610000      -4.08990000      -4.61370000
H        3.12030000      -4.52600000      -2.59670000
