20
Properties=species:S:1:pos:R:3 gdb_78549=T pbc="F F F"
C        0.02360000       1.57900000      -0.01920000
C       -0.02570000       0.08030000       0.04470000
C       -1.32500000      -0.74730000       0.02920000
C       -0.67540000      -1.71870000       1.03000000
C       -1.31320000      -2.50150000       2.10170000
N       -0.66440000      -3.18870000       0.95850000
C        0.59510000      -0.90260000       1.07930000
C        1.13100000      -0.80850000      -0.31880000
O        1.01010000      -1.85940000      -1.23550000
H        1.03930000       1.95050000       0.15150000
H       -0.29950000       1.94040000      -1.00310000
H       -0.63010000       2.03570000       0.73290000
H       -2.17410000      -0.20510000       0.45530000
H       -1.60510000      -1.16720000      -0.94180000
H       -0.81040000      -2.63130000       3.05680000
H       -2.39900000      -2.50830000       2.15910000
H       -1.38100000      -3.49860000       0.30530000
H        1.19720000      -0.71470000       1.96130000
H        2.07920000      -0.27650000      -0.40160000
H        1.00140000      -2.67990000      -0.72860000
