14
Properties=species:S:1:pos:R:3 gdb_1064=T pbc="F F F"
C       -0.76830000       1.10780000       0.05400000
C        0.56860000       0.37020000      -0.05380000
C        0.98570000      -0.31830000       1.20620000
C        0.37230000      -0.39330000       2.41360000
O        1.15490000      -1.14320000       3.25250000
C        2.21600000      -1.48490000       2.49060000
N        2.18290000      -1.03580000       1.28110000
H       -0.73280000       1.88410000       0.82540000
H       -1.02080000       1.59050000      -0.89390000
H       -1.58240000       0.42030000       0.30620000
H        0.52440000      -0.37420000      -0.85890000
H        1.36210000       1.06900000      -0.34740000
H       -0.54360000      -0.01220000       2.82910000
H        2.97530000      -2.09020000       2.96070000
