21
Properties=species:S:1:pos:R:3 gdb_101750=T pbc="F F F"
O        0.08750000       1.37230000       0.12950000
C        0.07190000      -0.03750000       0.14490000
C       -1.35840000      -0.57180000       0.05070000
O       -2.00920000       0.04220000      -1.07160000
C       -1.43090000      -2.09830000      -0.00940000
C       -2.85790000      -2.61530000       0.06870000
C       -3.07880000      -4.13280000       0.25780000
C       -3.81860000      -3.71790000       1.54500000
O       -3.46490000      -2.33210000       1.35520000
H       -0.59850000       1.62620000      -0.50220000
H        0.66750000      -0.45740000      -0.68880000
H        0.54240000      -0.36690000       1.07810000
H       -1.92480000      -0.21900000       0.91900000
H       -1.60360000      -0.31150000      -1.87290000
H       -0.96650000      -2.45520000      -0.94140000
H       -0.85180000      -2.52210000       0.82060000
H       -3.45490000      -2.17370000      -0.73980000
H       -3.67650000      -4.63310000      -0.50530000
H       -2.15970000      -4.69940000       0.42380000
H       -4.90560000      -3.86700000       1.52250000
H       -3.42750000      -4.11640000       2.48830000
