17
Properties=species:S:1:pos:R:3 gdb_2925=T pbc="F F F"
O        0.00610000       1.40910000       0.22740000
C       -0.01300000       0.00230000       0.06330000
C       -1.42110000      -0.48370000      -0.04110000
C       -2.53280000       0.24960000       0.01530000
C       -3.77770000      -0.58180000      -0.18010000
C       -3.25460000      -2.03560000      -0.04420000
C       -1.72660000      -1.94680000      -0.28830000
H        0.92200000       1.68640000       0.31590000
H        0.54310000      -0.30420000      -0.84190000
H        0.48380000      -0.50680000       0.90940000
H       -2.54740000       1.32440000       0.14460000
H       -4.56510000      -0.35270000       0.54750000
H       -4.21730000      -0.39630000      -1.17110000
H       -3.43750000      -2.39260000       0.97420000
H       -3.75120000      -2.73320000      -0.72350000
H       -1.45840000      -2.22640000      -1.31810000
H       -1.15830000      -2.62000000       0.36570000
