14
Properties=species:S:1:pos:R:3 gdb_31945=T pbc="F F F"
O        0.42430000       0.89380000      -0.65920000
C       -0.03710000       0.01710000       0.34640000
C       -1.44580000      -0.41550000       0.09220000
C       -2.26360000      -0.36670000      -1.00070000
N       -3.48790000      -0.90550000      -0.67880000
C       -3.37680000      -1.25790000       0.56800000
O       -2.14710000      -0.98110000       1.10480000
C       -4.34730000      -1.89280000       1.47140000
O       -5.47110000      -2.19490000       1.15730000
H       -0.09530000       1.70350000      -0.61030000
H        0.63580000      -0.84850000       0.32520000
H        0.03520000       0.44860000       1.35670000
H       -2.04120000       0.01360000      -1.98430000
H       -3.93870000      -2.07050000       2.48820000
