18
Properties=species:S:1:pos:R:3 gdb_89272=T pbc="F F F"
C       -0.10190000       1.53210000       0.27830000
C        0.08000000       0.05980000      -0.03410000
C       -1.18520000      -0.85460000       0.06280000
C       -0.51570000      -1.64640000       1.23530000
O       -0.44500000      -3.04230000       1.17280000
C        0.80110000      -0.86130000       1.00650000
O        1.74620000      -1.60650000       0.20250000
C        1.66760000      -1.06240000      -1.05020000
N        0.82340000      -0.15300000      -1.29210000
H        0.86460000       2.04310000       0.32810000
H       -0.69980000       2.01170000      -0.50240000
H       -0.61530000       1.66850000       1.23580000
H       -2.12210000      -0.35060000       0.31190000
H       -1.33220000      -1.45820000      -0.83520000
H       -0.96360000      -1.38900000       2.20010000
H        0.27700000      -3.25900000       0.56970000
H        1.33130000      -0.45290000       1.86950000
H        2.37270000      -1.48360000      -1.75820000
