19
Properties=species:S:1:pos:R:3 gdb_86960=T pbc="F F F"
O        0.03330000       1.49540000       0.03340000
C        0.12140000       0.07930000      -0.03390000
C       -1.24530000      -0.64920000       0.07250000
C       -1.16410000      -1.86180000      -0.89000000
C       -2.48460000      -2.16400000      -1.63180000
C       -2.39770000      -3.44470000      -2.42840000
O       -2.51870000      -3.52900000      -3.62350000
C       -0.01210000      -1.48560000      -1.79960000
C        0.68390000      -0.45130000      -1.33310000
H       -0.45010000       1.79080000      -0.74660000
H        0.77580000      -0.18400000       0.80700000
H       -1.50130000      -0.93120000       1.09660000
H       -2.01980000       0.04500000      -0.27570000
H       -0.89080000      -2.76330000      -0.32030000
H       -3.28460000      -2.28720000      -0.88810000
H       -2.75540000      -1.34370000      -2.30310000
H       -2.18840000      -4.35110000      -1.81070000
H        0.21140000      -2.03950000      -2.70560000
H        1.57140000      -0.02100000      -1.78400000
