23
Properties=species:S:1:pos:R:3 gdb_100033=T pbc="F F F"
C       -1.58810000      -1.23020000       1.43690000
C       -0.58260000      -0.56980000       0.52730000
O       -0.46650000       0.85970000       0.56110000
C        0.69360000       0.08560000       0.87900000
C        1.38680000       0.28510000       2.22840000
C        2.27350000       1.54270000       2.08960000
C        0.43070000       0.48300000       3.41630000
C        2.27320000      -0.95120000       2.45920000
O        3.02300000      -0.76140000       3.64980000
H       -1.65020000      -0.74640000       2.40940000
H       -2.58010000      -1.19030000       0.97410000
H       -1.33570000      -2.28660000       1.58240000
H       -0.61800000      -0.96290000      -0.49330000
H        1.42750000       0.08740000       0.06570000
H        1.65360000       2.43050000       1.93250000
H        2.87300000       1.68560000       2.99090000
H        2.95760000       1.45450000       1.23810000
H       -0.05300000      -0.45100000       3.71360000
H        0.99050000       0.84400000       4.28190000
H       -0.34190000       1.21420000       3.16650000
H        1.63420000      -1.84580000       2.53410000
H        2.94040000      -1.09290000       1.59290000
H        3.59200000      -1.52610000       3.77280000
