17
Properties=species:S:1:pos:R:3 gdb_95931=T pbc="F F F"
N        0.08590000       1.51500000       0.16900000
C        0.04270000       0.07990000      -0.01050000
C        0.62100000      -0.62460000       1.22050000
O       -0.46620000      -0.67390000       2.13820000
C       -1.56770000      -1.14980000       1.39130000
C       -1.43080000      -0.53370000      -0.04060000
O       -2.33960000       0.52300000      -0.29700000
C       -1.55750000      -1.56840000      -1.07680000
N       -1.67230000      -2.38250000      -1.89030000
H       -0.46180000       1.97130000      -0.55390000
H       -0.36060000       1.75630000       1.05010000
H        0.57270000      -0.18180000      -0.92910000
H        0.97000000      -1.63930000       0.97320000
H        1.43440000      -0.05870000       1.67620000
H       -1.55840000      -2.24870000       1.33900000
H       -2.49100000      -0.81750000       1.87210000
H       -3.21410000       0.14650000      -0.44600000
