16
Properties=species:S:1:pos:R:3 gdb_1531=T pbc="F F F"
C        0.10280000       1.31880000       0.00700000
O       -0.07910000      -0.09730000       0.00130000
C       -1.35380000      -0.53770000       0.01250000
N       -2.32630000       0.27970000       0.02690000
C       -1.36100000      -2.04930000       0.00480000
C       -2.74550000      -2.68060000       0.01340000
O       -2.56070000      -4.08630000       0.00460000
H        1.18210000       1.47780000      -0.00330000
H       -0.36130000       1.77460000      -0.87200000
H       -0.34290000       1.76500000       0.90040000
H       -3.21970000      -0.20570000       0.03380000
H       -0.80850000      -2.39670000      -0.87540000
H       -0.79380000      -2.40560000       0.87200000
H       -3.29980000      -2.35500000       0.90820000
H       -3.31490000      -2.34580000      -0.86850000
H       -3.42690000      -4.50380000       0.00830000
