19
Properties=species:S:1:pos:R:3 gdb_121513=T pbc="F F F"
C       -0.00220000       1.49820000       0.01970000
C        0.01120000       0.04640000       0.00120000
C        0.02180000      -1.16380000      -0.01420000
C        0.03290000      -2.52400000      -0.03140000
C        0.04380000      -3.73470000      -0.04670000
C        0.03730000      -5.18950000      -0.06420000
C       -1.38140000      -5.78970000       0.00120000
C       -1.35890000      -7.31260000      -0.01860000
O       -2.70110000      -7.76500000       0.04460000
H        0.99040000       1.90160000       0.25040000
H       -0.30870000       1.90530000      -0.95070000
H       -0.69920000       1.87940000       0.77480000
H        0.54430000      -5.54380000      -0.97260000
H        0.63400000      -5.56520000       0.77890000
H       -1.88560000      -5.45080000       0.91170000
H       -1.97560000      -5.42940000      -0.84450000
H       -0.85980000      -7.66560000      -0.93670000
H       -0.76910000      -7.68720000       0.83490000
H       -2.69680000      -8.72650000       0.03270000
