15
Properties=species:S:1:pos:R:3 gdb_98145=T pbc="F F F"
C        0.09960000       1.49950000      -0.13760000
C       -0.18000000       0.01650000      -0.37140000
C       -1.52550000      -0.42020000       0.15920000
O       -2.35880000       0.30840000       0.61480000
C       -1.79540000      -1.98320000       0.15550000
C       -3.22020000      -2.27890000       0.31410000
N       -4.34020000      -2.52150000       0.44570000
C       -1.22820000      -2.66380000      -1.01070000
N       -0.75340000      -3.17190000      -1.93260000
H        1.07350000       1.76890000      -0.55310000
H       -0.66450000       2.11880000      -0.61280000
H        0.09990000       1.73660000       0.92930000
H       -0.15410000      -0.23300000      -1.44060000
H        0.59180000      -0.62150000       0.08100000
H       -1.26790000      -2.35640000       1.04620000
