23
Properties=species:S:1:pos:R:3 gdb_59987=T pbc="F F F"
C        0.03060000       1.58450000      -0.07840000
C        0.01740000       0.06950000       0.09350000
O        0.60040000      -0.21150000       1.35540000
C       -1.40210000      -0.51080000      -0.02070000
C       -1.44040000      -2.04470000      -0.01060000
O       -0.84230000      -2.58780000       1.17360000
C       -2.86830000      -2.60280000      -0.14140000
C       -2.88710000      -4.10940000      -0.38480000
O       -3.50400000      -2.26450000       1.09690000
H        1.04720000       1.96440000       0.05470000
H       -0.32290000       1.87360000      -1.07320000
H       -0.60920000       2.05830000       0.67330000
H        0.62970000      -0.37640000      -0.71370000
H        0.40780000      -1.14190000       1.54060000
H       -2.01670000      -0.12550000       0.80160000
H       -1.85650000      -0.16380000      -0.95810000
H       -0.83870000      -2.42560000      -0.84490000
H       -1.52450000      -2.50270000       1.85560000
H       -3.37300000      -2.08650000      -0.97230000
H       -2.31070000      -4.62500000       0.38750000
H       -3.91380000      -4.49370000      -0.37840000
H       -2.45310000      -4.34900000      -1.36070000
H       -4.30440000      -2.79020000       1.18440000
