24
Properties=species:S:1:pos:R:3 gdb_58086=T pbc="F F F"
C       -0.04590000       1.64060000      -0.18120000
C       -0.03860000       0.10580000      -0.08730000
C       -1.46600000      -0.41370000       0.13560000
C        0.70670000      -0.56500000      -1.29000000
C        0.73460000      -2.10240000      -1.12480000
C        0.06270000      -0.22150000      -2.64490000
C        2.18700000      -0.12480000      -1.17970000
N        2.77450000       0.40600000      -2.29050000
O        2.81410000      -0.27820000      -0.14620000
H        0.95910000       2.04510000      -0.33490000
H       -0.68540000       1.99760000      -0.99630000
H       -0.43490000       2.07320000       0.74610000
H        0.55890000      -0.16120000       0.79060000
H       -2.12270000      -0.19700000      -0.71470000
H       -1.49520000      -1.49050000       0.31940000
H       -1.90380000       0.07730000       1.01100000
H       -0.26690000      -2.52930000      -1.22380000
H        1.36570000      -2.56060000      -1.89400000
H        1.14410000      -2.37480000      -0.14940000
H        0.07900000       0.85100000      -2.86250000
H        0.56230000      -0.74940000      -3.46470000
H       -0.98380000      -0.53850000      -2.66180000
H        2.27650000       0.59810000      -3.13950000
H        3.73680000       0.69250000      -2.21370000
