17
Properties=species:S:1:pos:R:3 gdb_51734=T pbc="F F F"
O       -0.46020000       0.08970000      -0.24750000
C       -0.04200000       1.19560000      -0.01940000
C        1.37110000       1.65390000      -0.32800000
C        1.38450000       2.92500000      -1.17290000
O        0.76590000       4.04720000      -0.49180000
C        1.92320000       4.89470000      -0.67880000
C        2.68510000       3.72350000      -1.29000000
C        4.08640000       3.31990000      -1.21090000
O        3.49480000       3.79000000      -2.43610000
H       -0.68350000       1.97350000       0.44690000
H        1.87560000       1.86480000       0.62450000
H        1.89830000       0.84260000      -0.83910000
H        0.91470000       2.74840000      -2.15040000
H        1.73110000       5.71520000      -1.38090000
H        2.29780000       5.29910000       0.26830000
H        4.81640000       3.99000000      -0.75910000
H        4.35080000       2.26380000      -1.19840000
