17
Properties=species:S:1:pos:R:3 gdb_117014=T pbc="F F F"
C        0.07590000       1.50890000      -0.17750000
C        0.02640000      -0.00100000      -0.04900000
O        0.68850000      -0.55580000      -1.20600000
C        0.73460000      -1.89980000      -1.25510000
O        0.27050000      -2.63380000      -0.41720000
C        1.41510000      -2.34760000      -2.44710000
C        1.97240000      -2.78500000      -3.42120000
C        2.65430000      -3.26640000      -4.61370000
O        2.67010000      -4.68410000      -4.62220000
H        1.10960000       1.86370000      -0.21400000
H       -0.43440000       1.84000000      -1.08620000
H       -0.41750000       1.96960000       0.68340000
H        0.53570000      -0.35520000       0.85260000
H       -1.00020000      -0.37880000      -0.01500000
H        2.13640000      -2.85870000      -5.49760000
H        3.67390000      -2.84690000      -4.62300000
H        3.12570000      -4.96340000      -5.42300000
