12
Properties=species:S:1:pos:R:3 gdb_16787=T pbc="F F F"
N       -0.06720000       1.27040000      -0.03550000
C       -0.05030000       0.01840000       0.04460000
O        1.08710000      -0.77190000       0.12060000
C        0.74990000      -2.11850000       0.02000000
O        1.56380000      -2.98030000       0.02260000
N       -0.66600000      -2.26860000      -0.09760000
C       -1.34270000      -1.85370000       1.15670000
C       -1.21630000      -0.90390000       0.02050000
H        0.87640000       1.65970000      -0.03350000
H       -2.29360000      -2.34580000       1.32670000
H       -0.72950000      -1.69810000       2.03930000
H       -2.07150000      -0.64170000      -0.58920000
