17
Properties=species:S:1:pos:R:3 gdb_12942=T pbc="F F F"
C        0.02080000       1.55730000       0.01820000
C        0.10080000       0.04840000       0.06620000
C        1.35020000      -0.73710000      -0.14200000
O        2.49060000      -0.00790000       0.38880000
C        1.95020000      -0.10790000       1.67180000
N        2.43810000       0.20560000       2.78280000
C        0.68980000      -0.78140000       1.22500000
C       -0.05550000      -1.83460000       1.98980000
H        0.95500000       2.01480000       0.35020000
H       -0.17510000       1.89710000      -1.00430000
H       -0.78810000       1.92550000       0.65670000
H       -0.77190000      -0.46310000      -0.33960000
H        1.55920000      -1.50260000      -0.87770000
H        3.36950000       0.61160000       2.67760000
H       -0.60780000      -1.39000000       2.82420000
H       -0.77650000      -2.34940000       1.34760000
H        0.62930000      -2.58040000       2.40490000
