16
Properties=species:S:1:pos:R:3 gdb_67414=T pbc="F F F"
N       -0.10800000       1.42590000      -0.02090000
C        0.04010000       0.02970000      -0.02160000
C        0.13030000      -1.07010000      -1.02940000
N        1.31540000      -1.64690000      -0.43240000
C        0.93280000      -0.97460000       0.84260000
C       -0.37680000      -1.66090000       1.32540000
C       -1.02080000      -1.06550000       0.07440000
C       -2.38860000      -0.94590000      -0.27800000
N       -3.50260000      -0.82110000      -0.57470000
H        0.43370000       1.88080000      -0.74630000
H       -1.07650000       1.71210000      -0.09780000
H       -0.11560000      -1.10080000      -2.08340000
H        1.30910000      -2.66600000      -0.37060000
H        1.73320000      -0.72320000       1.53420000
H       -0.36220000      -2.75040000       1.43970000
H       -0.77170000      -1.19330000       2.22980000
