17
Properties=species:S:1:pos:R:3 gdb_106000=T pbc="F F F"
O       -0.01930000       1.33180000       0.35880000
C       -0.06390000       0.01100000      -0.17560000
C       -1.46210000      -0.48450000      -0.13700000
C       -2.76350000      -0.07190000      -0.88960000
C       -3.59710000      -0.49080000       0.30990000
C       -3.28910000      -1.49890000      -0.78880000
C       -1.97910000      -1.90300000      -0.01880000
O       -1.22400000      -3.04590000      -0.00400000
C       -2.31090000      -0.90270000       1.08120000
H        0.87150000       1.67100000       0.22730000
H        0.30670000      -0.00240000      -1.21370000
H        0.56950000      -0.68060000       0.40300000
H       -2.95470000       0.68000000      -1.64420000
H       -4.55640000      -0.12430000       0.65040000
H       -3.96170000      -2.03460000      -1.44580000
H       -1.65220000      -3.68810000       0.57430000
H       -2.03050000      -0.87830000       2.12580000
