17
Properties=species:S:1:pos:R:3 gdb_55206=T pbc="F F F"
C       -0.08390000       1.47630000       0.18560000
C        0.08550000      -0.01010000      -0.02200000
O        1.16350000      -0.54130000      -0.15430000
C       -1.21610000      -0.82660000      -0.03100000
C       -1.05040000      -2.27480000      -0.51180000
C       -1.49760000      -3.11460000       0.65540000
C       -1.88810000      -2.39230000       1.71170000
C       -1.77410000      -0.95030000       1.42190000
O       -2.05330000      -0.02600000       2.14950000
H        0.88890000       1.95040000       0.31970000
H       -0.58570000       1.91250000      -0.68660000
H       -0.73320000       1.65310000       1.04930000
H       -1.96460000      -0.26870000      -0.60350000
H       -1.64640000      -2.49190000      -1.40560000
H       -0.00390000      -2.47910000      -0.76270000
H       -1.48530000      -4.19860000       0.61350000
H       -2.24190000      -2.75760000       2.66670000
