21
Properties=species:S:1:pos:R:3 gdb_73125=T pbc="F F F"
C        0.26190000       1.50460000      -0.02800000
C       -0.06780000       0.02040000      -0.00000000
C       -1.42890000      -0.41120000       0.59420000
O       -0.79400000      -1.42850000       1.40140000
C        0.51900000      -0.87180000       1.13270000
C        1.53450000      -1.85360000       0.54010000
C        1.32250000      -1.81080000      -0.96990000
C       -0.05130000      -2.14860000      -1.48160000
C        0.33580000      -0.69880000      -1.28880000
H        1.31690000       1.66810000      -0.27430000
H       -0.33660000       2.02750000      -0.78280000
H        0.06400000       1.97550000       0.94030000
H       -1.90600000       0.35610000       1.21970000
H       -2.17030000      -0.83130000      -0.09390000
H        0.89860000      -0.34730000       2.01930000
H        2.54920000      -1.52030000       0.78770000
H        1.40390000      -2.85200000       0.97200000
H        2.17560000      -1.99970000      -1.61260000
H       -0.13400000      -2.49920000      -2.50500000
H       -0.75380000      -2.60250000      -0.79150000
H        0.45730000      -0.09000000      -2.17880000
