11
Properties=species:S:1:pos:R:3 gdb_131121=T pbc="F F F"
O        0.04320000       1.47440000      -0.06070000
C        0.04250000       0.07620000       0.01790000
C        0.60610000      -0.55660000      -1.19870000
N        1.05870000      -1.02530000      -2.15200000
C        0.76840000      -0.43950000       1.23740000
N        1.67790000       0.23020000       1.87850000
O        2.05500000      -0.59030000       2.88190000
N        1.32050000      -1.77200000       2.79680000
N        0.55060000      -1.67680000       1.80800000
H        0.95570000       1.78940000      -0.03530000
H       -1.00550000      -0.23330000       0.09710000
