16
Properties=species:S:1:pos:R:3 gdb_12320=T pbc="F F F"
C        0.08570000       1.50510000       0.04740000
C        0.04490000       0.00560000      -0.02140000
C       -0.07940000      -0.70340000      -1.15340000
C       -0.06420000      -2.20370000      -1.18400000
O        0.51210000      -2.77380000      -0.02980000
C       -0.03180000      -2.25510000       1.16600000
C        0.07590000      -0.73410000       1.26480000
O        0.11020000      -0.17520000       2.34250000
H        1.02520000       1.84560000       0.49550000
H       -0.00960000       1.95030000      -0.94600000
H       -0.71460000       1.88620000       0.68950000
H       -0.20140000      -0.19930000      -2.11070000
H       -1.09410000      -2.58170000      -1.33920000
H        0.53090000      -2.55890000      -2.03260000
H       -1.09840000      -2.52740000       1.27400000
H        0.51370000      -2.70560000       1.99770000
