20
Properties=species:S:1:pos:R:3 gdb_13511=T pbc="F F F"
C       -0.73320000       1.27830000       0.20690000
C       -0.23610000      -0.16290000       0.14590000
C        0.79230000      -0.43210000      -0.99170000
C        1.93990000      -0.39480000       0.04980000
C        0.89990000      -0.54790000       1.18470000
C        1.03800000       0.33780000       2.40480000
C        0.24330000      -0.07470000       3.63140000
O        1.72370000       1.33730000       2.39650000
H        0.09650000       1.99110000       0.23140000
H       -1.34540000       1.49990000      -0.67400000
H       -1.35010000       1.45950000       1.09390000
H       -1.08960000      -0.84670000       0.16540000
H        0.66420000      -1.42130000      -1.43970000
H        0.82520000       0.30880000      -1.79530000
H        2.70680000      -1.16930000      -0.01940000
H        2.42740000       0.58000000       0.11420000
H        0.76880000      -1.58890000       1.49610000
H        0.65560000      -1.00480000       4.04100000
H        0.28850000       0.70640000       4.39130000
H       -0.79950000      -0.28310000       3.36660000
