15
Properties=species:S:1:pos:R:3 gdb_66548=T pbc="F F F"
O       -0.00390000       1.30360000       0.07200000
C        0.08540000      -0.06420000       0.05860000
C       -1.04810000      -1.04250000       0.11430000
C       -0.25370000      -0.93890000      -1.17660000
C        0.62280000      -2.17770000      -0.90950000
C        0.01660000      -2.09780000       0.55590000
C        1.10900000      -0.96800000       0.79110000
C        1.94040000      -1.63850000      -0.31720000
O        3.10440000      -1.82570000      -0.51890000
H        0.65040000       1.66770000      -0.53610000
H       -2.10200000      -0.91810000       0.31870000
H       -0.54020000      -0.49100000      -2.11890000
H        0.57780000      -3.04470000      -1.56460000
H       -0.10580000      -2.95010000       1.21630000
H        1.50260000      -0.67070000       1.75970000
