16
Properties=species:S:1:pos:R:3 gdb_21158=T pbc="F F F"
C        0.06900000       1.39140000       0.18600000
N       -0.00260000       0.02760000      -0.31590000
C       -1.13180000      -0.72730000      -0.06430000
C       -1.23130000      -2.10220000       0.10960000
N       -0.09420000      -2.96150000       0.13060000
C       -2.61840000      -2.33410000       0.26740000
N       -3.33080000      -1.21680000       0.21040000
N       -2.39560000      -0.24370000       0.00110000
H        1.06470000       1.79050000      -0.01930000
H       -0.64620000       2.03070000      -0.34440000
H       -0.12870000       1.47850000       1.26570000
H        0.81930000      -0.53210000      -0.12330000
H       -0.11180000      -3.58170000       0.93350000
H       -0.04950000      -3.55160000      -0.69500000
H       -3.11960000      -3.27840000       0.43240000
H       -2.70120000       0.70750000      -0.10040000
