18
Properties=species:S:1:pos:R:3 gdb_58023=T pbc="F F F"
C        0.07840000       1.42920000       0.03610000
C       -0.14120000      -0.06450000       0.30130000
N       -0.02990000      -0.41500000       1.73070000
C       -1.52770000      -0.57340000      -0.21630000
C       -1.86360000       0.00600000      -1.51750000
N       -2.10840000       0.52050000      -2.52180000
C       -1.65500000      -2.12540000      -0.30780000
N       -1.30260000      -2.77110000       0.83040000
O       -2.07620000      -2.66720000      -1.30720000
H        1.04800000       1.73690000       0.44080000
H        0.06120000       1.66200000      -1.03060000
H       -0.69840000       2.02980000       0.52460000
H        0.63280000      -0.63590000      -0.22380000
H        0.93000000      -0.28750000       2.03690000
H       -0.59140000       0.23010000       2.28280000
H       -2.28800000      -0.22850000       0.49930000
H       -0.79940000      -2.25920000       1.54930000
H       -1.29580000      -3.77810000       0.80170000
