19
Properties=species:S:1:pos:R:3 gdb_60330=T pbc="F F F"
C        0.19750000       1.63350000       0.33550000
C        0.01790000       0.12480000       0.12560000
C        0.55450000      -0.32660000      -1.23940000
C        0.69750000      -0.67900000       1.22780000
O        0.08830000      -0.32160000       2.49050000
C        0.58630000      -0.91300000       3.57040000
O        1.48490000      -1.71780000       3.59890000
C       -0.11210000      -0.46230000       4.85920000
O       -0.99640000       0.34480000       4.91020000
H        1.25730000       1.91110000       0.28270000
H       -0.33250000       2.19730000      -0.43810000
H       -0.18710000       1.94500000       1.30960000
H       -1.05450000      -0.10640000       0.17170000
H        1.63020000      -0.13250000      -1.32440000
H        0.39210000      -1.39660000      -1.40600000
H        0.05640000       0.21780000      -2.04690000
H        0.58090000      -1.75760000       1.08040000
H        1.77080000      -0.46430000       1.28520000
H        0.30930000      -0.97760000       5.74570000
