17
Properties=species:S:1:pos:R:3 gdb_12343=T pbc="F F F"
C       -0.06240000       1.44550000      -0.10260000
N        0.02100000       0.00130000       0.03440000
C       -1.25070000      -0.67490000       0.23270000
C       -1.15080000      -2.15880000       0.37370000
C        0.00120000      -2.81520000       0.32030000
C        1.30800000      -2.11770000       0.11260000
C        1.25030000      -0.60100000      -0.03340000
O        2.28090000       0.02950000      -0.20400000
H        0.94470000       1.83330000      -0.24260000
H       -0.68500000       1.71670000      -0.96490000
H       -0.50880000       1.89340000       0.79440000
H       -1.74440000      -0.25200000       1.12430000
H       -1.92110000      -0.42880000      -0.60840000
H       -2.09150000      -2.67970000       0.52490000
H        0.02400000      -3.89650000       0.42800000
H        2.00230000      -2.32370000       0.93780000
H        1.82110000      -2.49630000      -0.78120000
