19
Properties=species:S:1:pos:R:3 gdb_41095=T pbc="F F F"
C        0.01340000       1.45140000       0.08390000
C        1.56580000       1.53880000      -0.03420000
C        2.03950000       1.36150000      -1.51230000
C        1.67570000      -0.14900000      -1.41140000
C        2.75790000      -1.19420000      -1.07030000
O        2.54610000      -0.99360000       0.37180000
C        1.54480000      -0.02660000       0.09790000
C       -0.01850000      -0.10280000      -0.03840000
C        0.17940000      -0.56600000      -1.51730000
H       -0.29880000       1.75000000       1.08790000
H       -0.56790000       2.01420000      -0.65370000
H        2.06720000       2.25960000       0.61240000
H        1.52370000       1.95590000      -2.27270000
H        3.11730000       1.51150000      -1.62880000
H        2.54210000      -2.22940000      -1.36110000
H        3.78550000      -0.94100000      -1.35770000
H       -0.72260000      -0.63130000       0.60490000
H       -0.43110000      -0.06960000      -2.27790000
H        0.06810000      -1.64820000      -1.63700000
