18
Properties=species:S:1:pos:R:3 gdb_31146=T pbc="F F F"
C        0.42630000       1.36170000       0.44710000
N       -0.18940000       0.20130000      -0.20930000
C        0.57430000      -0.38750000      -1.24950000
C        0.24080000      -0.33320000      -2.57390000
N       -0.80080000       0.31160000      -3.21840000
O        1.14780000      -0.96490000      -3.33590000
C        2.11890000      -1.46970000      -2.47620000
C        1.81960000      -1.12860000      -1.19610000
N        2.55390000      -1.35820000      -0.02360000
H        1.41160000       1.15610000       0.89140000
H        0.55380000       2.15980000      -0.29010000
H       -0.24360000       1.72730000       1.23220000
H       -0.47300000      -0.48230000       0.48480000
H       -1.51250000       0.57220000      -2.54600000
H       -1.19420000      -0.22540000      -3.98160000
H        2.91970000      -2.01180000      -2.94650000
H        3.20230000      -2.13060000      -0.10640000
H        1.95520000      -1.51260000       0.77820000
