12
Properties=species:S:1:pos:R:3 gdb_132688=T pbc="F F F"
O        0.09180000       1.36860000       0.04530000
C        0.07510000       0.02230000       0.00310000
N        0.04170000      -0.60400000      -1.15000000
C        0.02600000      -1.94860000      -1.14930000
C        0.04540000      -2.62760000       0.05120000
F        0.03040000      -3.95530000       0.07430000
N        0.07920000      -2.01770000       1.22810000
C        0.09440000      -0.70110000       1.22260000
O        0.12870000      -0.02810000       2.38270000
H        0.07450000       1.66940000      -0.87390000
H       -0.00160000      -2.46660000      -2.10020000
H        0.13700000      -0.68980000       3.08890000
