19
Properties=species:S:1:pos:R:3 gdb_89903=T pbc="F F F"
O       -0.07160000       1.45200000       0.02770000
C        0.03810000       0.04830000       0.04340000
C        0.28310000      -0.67850000       1.39600000
C       -0.81190000      -1.69540000       0.98930000
C       -0.43420000      -3.13990000       0.48860000
C       -1.42110000      -3.69880000       1.52210000
O       -0.99150000      -3.23380000       2.80690000
C       -1.76900000      -2.34800000       1.98880000
C       -1.31760000      -0.67830000      -0.06710000
H        0.81020000       1.82600000       0.12350000
H        0.74000000      -0.30450000      -0.72620000
H        1.28240000      -1.06490000       1.60870000
H       -0.04680000      -0.04750000       2.22710000
H       -0.74230000      -3.31460000      -0.54590000
H        0.60330000      -3.45750000       0.62380000
H       -2.00410000      -4.61200000       1.49420000
H       -2.68240000      -1.94780000       2.41640000
H       -2.10610000      -0.03790000       0.34160000
H       -1.62940000      -1.05230000      -1.04520000
