14
Properties=species:S:1:pos:R:3 gdb_132951=T pbc="F F F"
O       -0.09560000       1.31870000       0.20310000
C       -0.00670000      -0.02620000       0.04500000
C        1.17370000      -0.69430000      -0.01430000
N        1.22220000      -2.06400000      -0.17610000
C        0.06820000      -2.78960000      -0.28170000
C       -1.12480000      -2.15870000      -0.22700000
F       -2.25050000      -2.88010000      -0.33150000
C       -1.29370000      -0.72340000      -0.05950000
N       -2.41250000      -0.08710000      -0.00280000
H        0.78910000       1.69480000       0.26270000
H        2.13140000      -0.19350000       0.06130000
H        2.11060000      -2.52910000      -0.21640000
H        0.15310000      -3.86040000      -0.40730000
H       -3.17980000      -0.75540000      -0.09510000
