18
Properties=species:S:1:pos:R:3 gdb_69731=T pbc="F F F"
C       -0.06340000       1.50510000       0.06660000
C        0.08150000       0.01670000      -0.01590000
O       -0.57490000      -0.79070000       0.98380000
C        0.85840000      -0.86290000       0.86090000
C        1.31700000      -1.92910000      -0.11780000
C        0.15730000      -2.26090000      -1.09370000
C        1.23420000      -2.38910000      -2.17850000
N        1.73050000      -1.15940000      -1.41630000
C        0.22920000      -0.73210000      -1.33790000
H        0.72190000       1.99560000      -0.51790000
H       -1.03200000       1.82670000      -0.33200000
H        0.00630000       1.84270000       1.10350000
H        1.43890000      -0.53810000       1.71740000
H        2.02090000      -2.69840000       0.20130000
H       -0.72810000      -2.87330000      -0.90480000
H        1.92010000      -3.23980000      -2.12810000
H        0.95190000      -2.17690000      -3.21370000
H       -0.16700000      -0.28920000      -2.25320000
