12
Properties=species:S:1:pos:R:3 gdb_28671=T pbc="F F F"
O        0.07140000       1.33130000       0.09360000
C        0.06260000      -0.00480000       0.04550000
N        0.10180000      -0.60150000      -1.13750000
C        0.09110000      -1.93500000      -1.13440000
C        0.04110000      -2.66340000       0.05430000
N        0.00140000      -2.04940000       1.25330000
C        0.01190000      -0.73150000       1.25320000
C        0.03080000      -4.09680000       0.02560000
N        0.02390000      -5.25200000      -0.03810000
H        0.10800000       1.64900000      -0.82070000
H        0.12290000      -2.43720000      -2.09640000
H       -0.01950000      -0.21320000       2.20650000
