15
Properties=species:S:1:pos:R:3 gdb_56379=T pbc="F F F"
O        0.19070000       1.42740000      -0.10870000
C        0.09620000       0.01180000      -0.09440000
C       -1.30870000      -0.42670000       0.02730000
C       -2.44850000      -0.77650000       0.17190000
C        0.68670000      -0.51280000      -1.33130000
C        1.19010000      -0.98110000      -2.31510000
C        0.89100000      -0.54250000       1.11160000
C        2.11180000       0.12740000       1.55560000
O        0.86230000       0.30510000       2.25440000
H        0.04580000       1.69660000       0.81150000
H       -3.46040000      -1.08030000       0.28280000
H        1.62500000      -1.38380000      -3.19670000
H        0.74210000      -1.60210000       1.30670000
H        2.86410000      -0.43760000       2.10070000
H        2.46010000       1.00200000       1.01370000
