15
Properties=species:S:1:pos:R:3 gdb_130123=T pbc="F F F"
N        0.02470000       1.35260000       0.15670000
C        0.01080000      -0.02940000       0.04680000
N       -1.11860000      -0.66270000       0.02440000
N       -1.07040000      -2.02160000       0.00940000
C        0.05430000      -2.84180000      -0.01020000
N        0.05070000      -4.12970000      -0.02970000
C        1.29300000      -2.08520000      -0.01200000
C        1.28100000      -0.73680000       0.01700000
O        2.37610000       0.06520000       0.00590000
H        0.82510000       1.79800000      -0.26670000
H       -0.85670000       1.78240000      -0.08550000
H       -1.98190000      -2.45070000       0.00110000
H       -0.90140000      -4.49880000      -0.02850000
H        2.21170000      -2.66030000      -0.03920000
H        3.17140000      -0.47850000      -0.03210000
