20
Properties=species:S:1:pos:R:3 gdb_112273=T pbc="F F F"
C       -0.09620000       1.48230000      -0.16550000
C       -0.04230000      -0.02030000       0.09830000
N       -1.36790000      -0.62120000       0.08390000
C       -2.27120000      -0.34790000       1.23130000
C       -2.60040000      -1.84720000       1.25640000
O       -3.39210000      -2.53490000       1.82330000
C       -1.46930000      -2.09950000       0.24170000
C       -1.81200000      -2.82390000      -1.05750000
O       -2.82940000      -2.14260000      -1.75410000
H        0.91160000       1.90760000      -0.17000000
H       -0.56620000       1.68690000      -1.13170000
H       -0.67290000       2.00030000       0.60800000
H        0.55280000      -0.51080000      -0.68060000
H        0.47050000      -0.21330000       1.06050000
H       -1.74890000      -0.03600000       2.15060000
H       -3.09300000       0.34720000       1.03390000
H       -0.59620000      -2.55850000       0.73480000
H       -0.89970000      -2.93060000      -1.66920000
H       -2.17540000      -3.83080000      -0.82480000
H       -2.59350000      -1.20610000      -1.67880000
