20
Properties=species:S:1:pos:R:3 gdb_115317=T pbc="F F F"
C        0.02940000       1.41600000      -0.02510000
N        0.01590000      -0.02570000      -0.10980000
C       -1.20820000      -0.80860000      -0.03570000
C       -0.74990000      -2.22720000      -0.43730000
C        0.74610000      -2.25500000      -0.08630000
C        1.64680000      -3.09230000      -1.00600000
O        2.99260000      -3.04810000      -0.59870000
C        1.14840000      -0.78050000      -0.12360000
O        2.29290000      -0.34810000      -0.16410000
H        1.06810000       1.74340000      -0.09320000
H       -0.54700000       1.86190000      -0.84410000
H       -0.39680000       1.76310000       0.92490000
H       -1.62800000      -0.78330000       0.98110000
H       -1.96750000      -0.40180000      -0.71300000
H       -1.32860000      -3.00470000       0.06450000
H       -0.87780000      -2.36090000      -1.51720000
H        0.90540000      -2.60200000       0.94320000
H        1.33100000      -4.14170000      -0.98110000
H        1.51720000      -2.73950000      -2.04500000
H        3.20030000      -2.10650000      -0.48420000
