15
Properties=species:S:1:pos:R:3 gdb_131550=T pbc="F F F"
O        0.17980000       1.37200000       0.32210000
C        0.08560000      -0.00980000       0.04460000
C       -1.40540000      -0.49780000      -0.16380000
N       -1.38290000      -1.54220000      -1.22360000
C       -0.20010000      -1.33300000      -1.91440000
N        0.33990000      -1.77290000      -3.04100000
N        1.55910000      -1.18290000      -2.98490000
N        1.82150000      -0.41390000      -1.92960000
C        0.69210000      -0.49760000      -1.23600000
H        0.06050000       1.84670000      -0.50830000
H        0.52570000      -0.50290000       0.91810000
H       -1.84010000      -0.89440000       0.75640000
H       -1.99210000       0.37930000      -0.47080000
H       -2.22840000      -1.63750000      -1.76920000
H        2.22000000      -1.28800000      -3.73610000
