20
Properties=species:S:1:pos:R:3 gdb_89640=T pbc="F F F"
C       -0.11070000       1.46900000      -0.06600000
C        0.06650000      -0.01260000       0.18870000
O        1.00790000      -0.65240000      -0.73560000
C        1.69560000      -1.26370000       0.36640000
C        2.33390000      -0.20950000       1.21560000
C        0.85850000      -0.52400000       1.39220000
C        2.13180000      -2.66800000       0.18590000
C        1.33530000      -3.58900000      -0.66190000
N        2.63840000      -3.08520000      -1.13510000
H        0.82890000       2.01330000       0.05750000
H       -0.47410000       1.63710000      -1.08490000
H       -0.84770000       1.88270000       0.63060000
H       -0.89760000      -0.53160000       0.11320000
H        2.96160000      -0.57800000       2.02140000
H        2.66650000       0.72110000       0.76470000
H        0.43500000      -0.86230000       2.32820000
H        2.69490000      -3.07170000       1.02440000
H        1.31040000      -4.65020000      -0.43140000
H        0.43640000      -3.18880000      -1.12070000
H        2.47120000      -2.32870000      -1.79660000
