14
Properties=species:S:1:pos:R:3 gdb_28725=T pbc="F F F"
C        0.13240000       1.59330000      -0.08340000
C        0.04480000       0.11500000       0.01540000
N       -0.42780000      -0.73010000      -0.84430000
C       -0.24860000      -1.98010000      -0.26030000
C        0.32950000      -1.80260000       0.94860000
O        0.75340000      -2.61960000       1.93560000
C       -0.19820000      -3.39400000       2.56720000
O        0.09960000      -4.19590000       3.38780000
O        0.52520000      -0.47170000       1.15340000
H        1.17270000       1.93040000      -0.03050000
H       -0.29600000       1.90550000      -1.03600000
H       -0.41400000       2.07750000       0.73230000
H       -0.52800000      -2.89780000      -0.75110000
H       -1.21300000      -3.16510000       2.19950000
