18
Properties=species:S:1:pos:R:3 gdb_14168=T pbc="F F F"
C       -0.18000000       1.66350000      -0.01000000
C       -0.00070000       0.16060000      -0.01530000
O       -1.25250000      -0.40380000      -0.33360000
C        1.17030000      -0.54860000      -0.76810000
C        2.45810000       0.09540000      -0.23350000
C        2.09310000       0.04650000       1.28880000
C        0.71240000      -0.61000000       1.14170000
O        0.98600000      -1.67430000       0.16230000
H        0.74140000       2.19700000       0.22810000
H       -0.53070000       1.99560000      -0.99190000
H       -0.94240000       1.94040000       0.72430000
H       -1.11490000      -1.36050000      -0.33140000
H        1.09890000      -0.82750000      -1.82000000
H        3.33170000      -0.51350000      -0.47420000
H        2.62510000       1.10580000      -0.61500000
H        2.77160000      -0.58850000       1.86170000
H        2.05440000       1.02930000       1.76510000
H        0.17620000      -0.95120000       2.02800000
