18
Properties=species:S:1:pos:R:3 gdb_77318=T pbc="F F F"
C       -0.26440000       1.47080000       0.00540000
C        0.05510000      -0.01770000       0.06250000
C        0.85560000      -0.58780000      -1.13570000
C        1.50580000      -1.83070000      -0.49240000
O        1.74630000      -1.45920000       0.87060000
C        0.92770000      -0.42420000       1.23590000
N        0.91110000       0.10750000       2.37950000
C        0.07500000      -0.87520000      -2.32570000
C       -0.58120000      -1.12360000      -3.30160000
H        0.65050000       2.06200000      -0.10260000
H       -0.92240000       1.69100000      -0.84010000
H       -0.75430000       1.78340000       0.92990000
H       -0.88010000      -0.58850000       0.14160000
H        1.65110000       0.12720000      -1.38500000
H        0.82770000      -2.69140000      -0.52820000
H        2.45980000      -2.10760000      -0.94490000
H        1.57780000      -0.35120000       3.00270000
H       -1.15600000      -1.33810000      -4.16850000
