25
Properties=species:S:1:pos:R:3 gdb_100946=T pbc="F F F"
C        0.28120000       0.98810000       0.83110000
C        0.03160000      -0.37150000       0.17370000
C        0.53570000      -0.45880000      -1.27320000
O        1.93590000      -0.15520000      -1.29300000
C        2.29020000       1.02020000      -1.98710000
C        0.32770000      -1.85130000      -1.90350000
C       -1.13650000      -2.31100000      -1.88370000
C        0.87600000      -1.88900000      -3.34020000
O        0.79670000      -3.18010000      -3.93160000
H        1.34970000       1.21710000       0.85690000
H       -0.22770000       1.79420000       0.28990000
H       -0.09000000       0.99720000       1.86040000
H        0.52730000      -1.15820000       0.75690000
H       -1.04030000      -0.59440000       0.19020000
H       -0.00420000       0.28530000      -1.88200000
H        3.37650000       1.12230000      -1.91090000
H        2.01870000       0.97030000      -3.05250000
H        1.82380000       1.91690000      -1.55450000
H        0.93050000      -2.55550000      -1.30930000
H       -1.79510000      -1.54470000      -2.31130000
H       -1.24080000      -3.21370000      -2.49030000
H       -1.49060000      -2.53350000      -0.87420000
H        0.27380000      -1.23670000      -3.98520000
H        1.90680000      -1.51500000      -3.35140000
H        1.40700000      -3.75410000      -3.45750000
