21
Properties=species:S:1:pos:R:3 gdb_76656=T pbc="F F F"
C        0.15160000       1.43160000       0.35060000
C        0.17240000      -0.04420000       0.01700000
C        0.71680000      -0.58290000      -1.30150000
C        1.27050000       0.31290000      -2.38940000
C        1.46120000      -0.82580000      -0.02000000
O        2.67890000      -0.11440000       0.12550000
C        3.31140000      -0.24320000       1.31810000
C        4.59070000       0.55870000       1.32040000
O        2.90060000      -0.91560000       2.22740000
H        1.06090000       1.93960000       0.02310000
H       -0.70160000       1.92920000      -0.12230000
H        0.06510000       1.57730000       1.43270000
H       -0.67150000      -0.59570000       0.42420000
H        0.19590000      -1.45710000      -1.68450000
H        1.87070000       1.13010000      -1.98620000
H        1.91370000      -0.25970000      -3.06630000
H        0.46130000       0.74630000      -2.98660000
H        1.50250000      -1.81370000       0.42190000
H        4.37020000       1.61790000       1.15960000
H        5.09860000       0.42690000       2.27490000
H        5.23980000       0.23420000       0.50240000
