18
Properties=species:S:1:pos:R:3 gdb_72187=T pbc="F F F"
C        0.00700000       1.48190000      -0.06250000
C       -0.04780000      -0.01720000       0.00350000
O        0.21090000      -0.68100000      -1.25350000
C       -0.67800000      -1.75740000      -0.83610000
C        0.16580000      -2.78400000      -0.09190000
N        0.47470000      -2.16640000       1.21380000
C       -0.65420000      -1.35090000       1.63060000
C        0.64230000      -0.70320000       1.22280000
C       -1.29840000      -0.87880000       0.30120000
H        1.02670000       1.81250000      -0.29030000
H       -0.65870000       1.85680000      -0.84480000
H       -0.28740000       1.92140000       0.89580000
H       -1.29280000      -2.12640000      -1.65980000
H       -0.38050000      -3.71410000       0.10180000
H        1.08340000      -3.01200000      -0.63960000
H       -1.11760000      -1.48860000       2.59970000
H        1.45600000      -0.29870000       1.81640000
H       -2.31670000      -0.50670000       0.23210000
