20
Properties=species:S:1:pos:R:3 gdb_101553=T pbc="F F F"
C        0.02160000       1.55800000      -0.06820000
C        0.09210000       0.02950000      -0.03490000
C        0.68720000      -0.53120000       1.25350000
C        0.67800000      -2.05470000       1.31340000
O        2.05950000      -0.05040000       1.31150000
C        2.64100000       0.05260000       2.51230000
N        2.09940000      -0.24720000       3.61910000
C        4.05080000       0.58980000       2.36830000
O        4.76190000       0.77830000       3.32000000
H        1.01800000       1.99730000       0.02870000
H       -0.41280000       1.90980000      -1.00840000
H       -0.59640000       1.94320000       0.75020000
H       -0.91300000      -0.39470000      -0.14480000
H        0.68160000      -0.34140000      -0.88260000
H        0.16650000      -0.12440000       2.12690000
H        1.12030000      -2.40570000       2.24770000
H       -0.35180000      -2.42140000       1.26340000
H        1.23560000      -2.47710000       0.47150000
H        2.77140000      -0.05170000       4.36430000
H        4.37120000       0.79270000       1.32700000
