16
Properties=species:S:1:pos:R:3 gdb_95535=T pbc="F F F"
O       -0.06750000       1.42270000       0.07400000
C        0.01330000       0.01710000       0.01340000
C       -1.42030000      -0.50730000       0.06460000
N       -1.39000000      -1.94340000      -0.15590000
C       -0.38850000      -2.53250000      -0.86420000
N        0.63560000      -1.97670000      -1.39950000
C        0.70960000      -0.51640000      -1.26650000
C        0.15410000       0.13190000      -2.46800000
N       -0.29340000       0.62620000      -3.41180000
H        0.82200000       1.78980000       0.04670000
H        0.57370000      -0.39460000       0.86600000
H       -1.85890000      -0.29000000       1.04230000
H       -2.01370000       0.01480000      -0.69730000
H       -2.17080000      -2.50420000       0.13820000
H       -0.48710000      -3.61470000      -0.95350000
H        1.77230000      -0.24280000      -1.22150000
