18
Properties=species:S:1:pos:R:3 gdb_10500=T pbc="F F F"
C       -0.35710000       1.39830000       0.04270000
C        0.23180000      -0.01410000       0.11080000
C        0.81710000      -0.46950000      -1.21640000
C        0.64350000      -1.86860000      -1.65950000
O       -0.16720000      -0.83650000      -2.21000000
C        1.94600000       0.28580000      -1.71110000
C        2.88860000       0.93260000      -2.09110000
C        4.02500000       1.70750000      -2.56640000
H        0.40930000       2.12980000      -0.22980000
H       -1.15260000       1.44620000      -0.70670000
H       -0.77900000       1.69030000       1.00880000
H        1.01860000      -0.06120000       0.87320000
H       -0.54460000      -0.73050000       0.39990000
H        1.37220000      -2.30690000      -2.33920000
H        0.13270000      -2.57140000      -1.00120000
H        4.83440000       1.05680000      -2.91510000
H        3.73770000       2.35750000      -3.40020000
H        4.42900000       2.34530000      -1.77270000
