21
Properties=species:S:1:pos:R:3 gdb_107943=T pbc="F F F"
C       -0.03520000       1.33340000       0.06390000
O       -0.00230000      -0.08020000       0.01980000
C        0.62870000      -0.58540000      -1.09910000
C        0.01530000      -0.45930000      -2.52900000
C        0.73230000      -1.77970000      -2.80600000
C        0.79980000      -2.13420000      -1.33720000
C        2.07800000      -1.76420000      -2.05400000
C        3.22260000      -2.64900000      -2.44840000
C        2.16120000      -0.41450000      -1.33510000
H        0.97650000       1.76350000       0.07720000
H       -0.58180000       1.75510000      -0.79180000
H       -0.55080000       1.61310000       0.98510000
H       -1.06980000      -0.59470000      -2.49920000
H        0.27120000       0.42160000      -3.12930000
H        0.57620000      -2.45680000      -3.63640000
H        0.49370000      -3.00570000      -0.77730000
H        2.86340000      -3.61340000      -2.82420000
H        3.82780000      -2.19060000      -3.23960000
H        3.88350000      -2.84950000      -1.59750000
H        2.50870000       0.46370000      -1.89320000
H        2.71270000      -0.50580000      -0.39410000
