18
Properties=species:S:1:pos:R:3 gdb_106879=T pbc="F F F"
C        0.34690000       0.50010000      -0.70830000
O       -0.23410000       0.25190000       0.56920000
C        0.51270000      -0.43470000       1.47460000
C        1.93150000      -0.85080000       1.37070000
C        0.93310000      -1.96860000       1.61560000
N        0.56410000      -1.94950000       3.04330000
C       -0.00670000      -0.56550000       2.90130000
C        0.69270000      -3.05450000       0.67950000
O        1.01190000      -3.04480000      -0.49370000
H        0.58010000      -0.43560000      -1.22690000
H       -0.40200000       1.05550000      -1.27490000
H        1.25650000       1.10660000      -0.61900000
H        2.34640000      -0.87350000       0.36920000
H        2.63770000      -0.63310000       2.17010000
H       -0.18040000      -2.61550000       3.23120000
H        0.37880000       0.15340000       3.63240000
H       -1.10010000      -0.54910000       2.91340000
H        0.14130000      -3.91990000       1.11550000
