19
Properties=species:S:1:pos:R:3 gdb_105919=T pbc="F F F"
C        0.00910000       1.48060000       0.23800000
C       -0.09260000      -0.00260000      -0.14410000
C       -1.49830000      -0.52550000      -0.08270000
C       -2.22640000      -0.91780000       1.20740000
C       -2.03770000      -1.92890000       0.09540000
C       -3.38900000      -1.42560000      -0.49610000
C       -3.67210000      -0.55580000       0.77300000
O       -3.61100000       0.67810000       0.02090000
C       -2.75260000      -0.05440000      -0.88390000
H        1.04080000       1.83670000       0.15960000
H       -0.61120000       2.10060000      -0.41720000
H       -0.33350000       1.64600000       1.26410000
H        0.30820000      -0.14910000      -1.15610000
H        0.54310000      -0.60260000       0.51960000
H       -1.75830000      -0.86440000       2.18120000
H       -1.54230000      -2.88900000       0.08760000
H       -4.13280000      -1.96740000      -1.07440000
H       -4.51440000      -0.62470000       1.45960000
H       -2.66080000       0.38570000      -1.87650000
