17
Properties=species:S:1:pos:R:3 gdb_51411=T pbc="F F F"
N       -0.01650000       1.12040000      -0.05840000
C       -0.65690000       0.04910000       0.13720000
O       -0.14710000      -1.09680000      -0.38990000
C       -0.75300000      -2.35160000      -0.24880000
C       -1.26740000      -2.88860000       1.15730000
N       -2.51750000      -2.10320000       0.88400000
C       -2.30330000      -2.57740000      -0.52440000
C       -2.32810000      -4.10310000      -0.40020000
C       -1.63320000      -4.31190000       0.72810000
H       -0.51060000       1.89080000       0.38930000
H       -1.58900000      -0.09260000       0.68550000
H       -0.09130000      -3.03110000      -0.78210000
H       -0.73570000      -2.71280000       2.09180000
H       -3.33780000      -2.53930000       1.30860000
H       -2.84300000      -2.07980000      -1.32930000
H       -2.73110000      -4.80710000      -1.11390000
H       -1.31150000      -5.23360000       1.19110000
