18
Properties=species:S:1:pos:R:3 gdb_11259=T pbc="F F F"
C       -0.68310000       1.30700000      -0.09850000
C        0.16920000       0.04740000       0.04360000
C        1.09940000      -0.24130000      -1.16620000
C        2.29390000      -0.90970000      -0.54100000
C        2.31650000      -0.75990000       0.79280000
C        1.11750000       0.04700000       1.27030000
C        3.31760000      -1.22280000       1.67970000
C        4.14070000      -1.59900000       2.47610000
H       -0.05230000       2.19680000      -0.20920000
H       -1.33460000       1.24920000      -0.97700000
H       -1.32130000       1.45820000       0.77860000
H       -0.49850000      -0.81650000       0.15000000
H        0.61350000      -0.85630000      -1.93250000
H        1.40110000       0.69070000      -1.66970000
H        3.06300000      -1.41540000      -1.11310000
H        1.43440000       1.06510000       1.53770000
H        0.65350000      -0.37970000       2.16510000
H        4.87620000      -1.93590000       3.16350000
