19
Properties=species:S:1:pos:R:3 gdb_55795=T pbc="F F F"
C        0.03890000       1.52290000      -0.10090000
C        0.01290000       0.03740000       0.20970000
O        0.96640000      -0.53510000       0.68490000
C       -1.29220000      -0.69410000      -0.10070000
C       -1.14370000      -2.20630000      -0.08390000
C       -0.92080000      -3.02900000       1.21440000
C       -2.39500000      -2.81500000       1.63660000
C       -2.33930000      -3.17900000       0.13270000
O       -1.35770000      -4.23500000       0.46560000
H        0.95290000       1.96990000       0.29170000
H       -0.00060000       1.67390000      -1.18620000
H       -0.83750000       2.02710000       0.32070000
H       -2.03490000      -0.33740000       0.62470000
H       -1.66440000      -0.35670000      -1.07730000
H       -0.48350000      -2.55210000      -0.88250000
H       -0.02310000      -3.10970000       1.82420000
H       -2.80210000      -3.59860000       2.27600000
H       -2.72760000      -1.81900000       1.93730000
H       -3.14980000      -3.44400000      -0.54800000
