18
Properties=species:S:1:pos:R:3 gdb_53587=T pbc="F F F"
C       -0.06230000       1.45930000      -0.23940000
C       -0.04180000       0.02690000       0.02140000
C       -0.01140000      -1.15800000       0.23260000
C       -0.00640000      -2.59490000       0.49010000
C       -1.36240000      -3.23090000       0.23480000
N       -1.63040000      -3.68680000      -1.12660000
C       -1.50990000      -4.69570000      -0.04400000
C       -0.38890000      -5.59430000      -0.08840000
C        0.53690000      -6.36150000      -0.09100000
H        0.79120000       1.76360000      -0.85550000
H       -0.97370000       1.75420000      -0.77150000
H       -0.02120000       2.03720000       0.69070000
H        0.73550000      -3.09660000      -0.14010000
H        0.28490000      -2.78840000       1.53130000
H       -2.18240000      -2.77500000       0.78680000
H       -2.61010000      -3.56120000      -1.36750000
H       -2.43110000      -5.15060000       0.31480000
H        1.35670000      -7.03630000      -0.10690000
