18
Properties=species:S:1:pos:R:3 gdb_42395=T pbc="F F F"
O        0.62800000       2.55620000      -1.96250000
C        0.26450000       1.90500000      -1.00840000
C        1.12340000       0.79790000      -0.41460000
C        2.02510000       1.37970000       0.66760000
C        3.45970000       1.00250000       0.71590000
N        3.05860000       2.35720000       0.30120000
C       -1.04380000       2.22650000      -0.34020000
C       -2.04180000       1.16670000      -0.08370000
O       -1.26400000       1.70500000       0.97370000
H        0.51310000      -0.00070000       0.01730000
H        1.72880000       0.38850000      -1.22860000
H        1.51120000       1.61370000       1.59640000
H        3.98000000       0.94990000       1.66800000
H        3.82320000       0.30770000      -0.03750000
H        3.09870000       2.44790000      -0.71210000
H       -1.39820000       3.24030000      -0.51610000
H       -3.09580000       1.43810000      -0.08330000
H       -1.82180000       0.13620000      -0.35770000
