21
Properties=species:S:1:pos:R:3 gdb_69514=T pbc="F F F"
C       -0.00490000       1.53860000       0.06560000
C       -0.00790000       0.03850000       0.02250000
C       -0.92930000      -0.83730000       0.82820000
C        0.56420000      -0.96460000       1.01310000
C        1.31690000      -1.70100000      -0.13820000
C        2.72840000      -2.18290000       0.02270000
C        0.37930000      -2.20500000      -1.22260000
C        0.71650000      -0.73850000      -1.13140000
O        1.38570000      -0.06060000      -2.13830000
H        0.97610000       1.93870000      -0.21020000
H       -0.74060000       1.96550000      -0.62790000
H       -0.25230000       1.89820000       1.06960000
H       -1.43040000      -0.31960000       1.64270000
H       -1.53630000      -1.62400000       0.39340000
H        1.04120000      -0.76070000       1.96500000
H        2.77330000      -3.09220000       0.63470000
H        3.17810000      -2.40870000      -0.94880000
H        3.35200000      -1.42440000       0.51020000
H        0.90940000      -2.69930000      -2.03280000
H       -0.60360000      -2.62190000      -1.02920000
H        0.78360000       0.04800000      -2.88330000
