10
Properties=species:S:1:pos:R:3 gdb_767=T pbc="F F F"
N       -0.01940000       1.34500000       0.16000000
C        0.00290000      -0.03080000       0.05300000
N       -1.09880000      -0.77070000       0.02160000
N       -0.57490000      -2.03200000      -0.01600000
C        0.76560000      -1.98230000      -0.01320000
N        1.17830000      -0.72930000       0.02930000
H        0.80990000       1.78220000      -0.21400000
H       -0.87340000       1.76600000      -0.17510000
H       -1.19030000      -2.82690000      -0.04230000
H        1.39300000      -2.86060000      -0.04230000
