22
Properties=species:S:1:pos:R:3 gdb_107919=T pbc="F F F"
C        0.27800000       1.44530000       0.19880000
C       -0.11880000       0.00370000      -0.14500000
C        0.55990000      -0.50090000      -1.38280000
C        0.31650000      -0.08980000      -2.84060000
C        1.23850000      -1.27890000      -3.21550000
C        0.94520000      -1.87560000      -1.78600000
N        1.99410000      -0.96150000      -1.24060000
C        2.59010000      -0.84020000      -2.61860000
C        3.74580000      -1.80880000      -2.78830000
H        1.35820000       1.51520000       0.35680000
H        0.00950000       2.13580000      -0.60790000
H       -0.22450000       1.78540000       1.10920000
H        0.14040000      -0.65900000       0.68820000
H       -1.20620000      -0.06520000      -0.27950000
H       -0.72660000      -0.26990000      -3.11600000
H        0.62060000       0.90850000      -3.17660000
H        1.15700000      -1.77860000      -4.18000000
H        0.71810000      -2.85680000      -1.38910000
H        2.91050000       0.18180000      -2.86300000
H        3.43670000      -2.83480000      -2.56310000
H        4.12290000      -1.78170000      -3.81610000
H        4.56710000      -1.54850000      -2.11370000
