15
Properties=species:S:1:pos:R:3 gdb_1778=T pbc="F F F"
C       -0.04870000       1.40060000      -0.08090000
C        0.15660000      -0.09240000       0.02120000
C        1.50730000      -0.70490000      -0.17560000
C        0.91190000      -0.67340000       1.22000000
O        1.53520000       0.18080000       2.13420000
C        0.42610000      -1.96310000       1.78090000
O       -0.12990000      -2.82360000       1.14050000
H        0.80320000       1.94440000       0.33580000
H       -0.16320000       1.70220000      -1.12720000
H       -0.95140000       1.71820000       0.45310000
H       -0.67900000      -0.71350000      -0.28980000
H        1.57500000      -1.67640000      -0.65160000
H        2.35100000      -0.03900000      -0.32140000
H        0.85500000       0.64510000       2.63450000
H        0.62570000      -2.07340000       2.87090000
