17
Properties=species:S:1:pos:R:3 gdb_31353=T pbc="F F F"
C        0.11700000       1.53770000       0.00840000
C       -0.02530000       0.01770000       0.00250000
C       -1.46020000      -0.46320000       0.01300000
N       -2.44810000       0.36210000       0.02270000
C       -3.78440000      -0.11130000       0.03220000
O       -4.71930000       0.66470000       0.04100000
C       -3.95530000      -1.57020000       0.02970000
C       -2.87980000      -2.37780000       0.01940000
N       -1.61820000      -1.83010000       0.01100000
H        1.17490000       1.81490000      -0.00010000
H       -0.37020000       1.97790000      -0.86390000
H       -0.35390000       1.96970000       0.89380000
H        0.47160000      -0.41020000      -0.87980000
H        0.48740000      -0.41850000       0.87160000
H       -4.96020000      -1.97110000       0.03630000
H       -2.92820000      -3.46040000       0.01700000
H       -0.80620000      -2.42590000       0.00330000
