19
Properties=species:S:1:pos:R:3 gdb_12265=T pbc="F F F"
C       -0.11910000       1.57820000      -0.04210000
C        0.06980000       0.06260000       0.08670000
C        0.71900000      -0.54560000      -1.15470000
C        0.76850000      -2.10080000      -1.27250000
N       -0.06350000      -1.97700000      -2.47050000
C       -0.63130000      -2.95030000      -3.36470000
C       -0.16980000      -0.60970000      -2.42300000
O       -0.76320000       0.17790000      -3.11790000
H        0.84610000       2.08750000      -0.13980000
H       -0.71320000       1.81800000      -0.92800000
H       -0.62450000       1.98710000       0.83790000
H        0.68520000      -0.16840000       0.96550000
H       -0.90240000      -0.41920000       0.25450000
H        1.68550000      -0.07320000      -1.35790000
H        1.75770000      -2.53570000      -1.45650000
H        0.28270000      -2.63890000      -0.44920000
H       -1.29710000      -3.64470000      -2.83690000
H       -1.21170000      -2.40920000      -4.11600000
H        0.14600000      -3.53520000      -3.87190000
