17
Properties=species:S:1:pos:R:3 gdb_11273=T pbc="F F F"
C       -0.07130000       1.57680000      -0.01490000
C        0.03360000       0.04780000       0.01820000
C        0.79140000      -0.56650000      -1.19060000
C        1.55470000      -1.79440000      -0.63950000
C        1.63080000      -1.49110000       0.84820000
C        0.80160000      -0.49860000       1.19730000
C        2.45680000      -2.23040000       1.73780000
N        3.14430000      -2.85010000       2.43500000
H        0.92260000       2.03620000      -0.03690000
H       -0.61650000       1.90830000      -0.90440000
H       -0.60150000       1.95940000       0.86320000
H       -0.98900000      -0.35920000       0.06320000
H        0.12570000      -0.82070000      -2.01860000
H        1.51100000       0.16960000      -1.56550000
H        1.00730000      -2.73150000      -0.80290000
H        2.54180000      -1.92510000      -1.09240000
H        0.66310000      -0.14040000       2.21130000
