19
Properties=species:S:1:pos:R:3 gdb_9359=T pbc="F F F"
C        0.06220000       1.41620000       0.15630000
N        0.23580000      -0.01480000       0.00360000
C        0.38030000      -0.61400000      -1.21420000
O        0.40800000       0.00960000      -2.26220000
C        0.48450000      -2.13480000      -1.16700000
C        1.31900000      -2.67600000      -2.32060000
O        1.27720000      -4.08580000      -2.26120000
C        2.00360000      -4.69360000      -3.30150000
H        0.85610000       1.85060000       0.77410000
H        0.10670000       1.85440000      -0.84130000
H       -0.90580000       1.65730000       0.61020000
H        0.22330000      -0.59520000       0.82540000
H        0.89710000      -2.47850000      -0.21220000
H       -0.52730000      -2.55210000      -1.24310000
H        0.91650000      -2.30230000      -3.27250000
H        2.35870000      -2.31540000      -2.24620000
H        1.61330000      -4.41180000      -4.29220000
H        3.07150000      -4.42410000      -3.26740000
H        1.90950000      -5.77560000      -3.17920000
