19
Properties=species:S:1:pos:R:3 gdb_124646=T pbc="F F F"
C       -0.08400000       1.57280000       0.13160000
C        0.01820000       0.05900000      -0.00280000
C        0.72210000      -0.59080000       1.18840000
O       -1.33040000      -0.41650000      -0.12320000
C       -1.51520000      -1.65640000      -0.63880000
C       -2.74700000      -2.28010000      -0.71620000
N       -2.51480000      -3.47660000      -1.31840000
N       -1.23020000      -3.67950000      -1.63210000
C       -0.60610000      -2.57280000      -1.22270000
H        0.91220000       2.01750000       0.21090000
H       -0.59120000       2.00250000      -0.73600000
H       -0.65310000       1.83610000       1.02860000
H        0.55750000      -0.18270000      -0.92970000
H        0.73640000      -1.67970000       1.09630000
H        1.75660000      -0.23970000       1.25640000
H        0.20630000      -0.33130000       2.11830000
H       -3.72640000      -1.96140000      -0.40160000
H       -3.18800000      -4.19060000      -1.53630000
H        0.46010000      -2.48330000      -1.35820000
