23
Properties=species:S:1:pos:R:3 gdb_36726=T pbc="F F F"
C       -0.09680000      -1.24170000      -0.16900000
C       -0.07710000      -0.04180000      -0.09610000
C       -0.01760000       1.41200000      -0.00620000
C        1.42700000       1.95410000       0.04220000
C        1.50110000       3.48090000       0.10210000
C        0.90350000       4.11640000       1.37970000
C        1.61870000       5.48700000       1.55280000
C        2.75670000       5.51010000       0.49700000
C        2.93350000       4.04250000       0.07700000
H       -0.12710000      -2.30080000      -0.23370000
H       -0.54190000       1.85190000      -0.86530000
H       -0.56640000       1.74240000       0.88450000
H        1.93780000       1.52670000       0.91420000
H        1.96510000       1.59020000      -0.84080000
H        0.96740000       3.88830000      -0.77030000
H       -0.18410000       4.21930000       1.32870000
H        1.11750000       3.46680000       2.23750000
H        0.93040000       6.32490000       1.41130000
H        2.02030000       5.58470000       2.56570000
H        2.45150000       6.10410000      -0.37210000
H        3.67800000       5.95850000       0.87880000
H        3.54730000       3.50610000       0.81370000
H        3.42100000       3.92740000      -0.89610000
