25
Properties=species:S:1:pos:R:3 gdb_113370=T pbc="F F F"
C        0.96640000      -0.03730000      -1.19270000
C       -0.02110000      -0.29270000      -0.04600000
C        0.61030000      -0.76330000       1.25930000
C        1.78020000       0.04620000       1.80370000
C        1.41840000       1.49130000       2.17030000
C       -0.34350000      -1.35320000       2.29030000
C        0.60910000      -2.25330000       1.57000000
O        0.04090000      -3.17970000       0.69670000
C        0.98840000      -3.82080000      -0.13250000
H        1.57490000      -0.92180000      -1.40780000
H        0.42900000       0.22610000      -2.10910000
H        1.65150000       0.78640000      -0.96820000
H       -0.59070000       0.62650000       0.14230000
H       -0.75070000      -1.04560000      -0.36040000
H        2.17170000      -0.45930000       2.69560000
H        2.60150000       0.04750000       1.07600000
H        2.27610000       2.01130000       2.60850000
H        1.09940000       2.06280000       1.29280000
H        0.60020000       1.51900000       2.89770000
H       -0.17840000      -1.15280000       3.34410000
H       -1.38680000      -1.44280000       2.00560000
H        1.46510000      -2.64470000       2.12440000
H        0.44230000      -4.53750000      -0.75050000
H        1.51490000      -3.11230000      -0.78670000
H        1.73900000      -4.36420000       0.46170000
