21
Properties=species:S:1:pos:R:3 gdb_103004=T pbc="F F F"
C        0.04250000       1.31730000      -0.22410000
O       -0.03660000      -0.03780000       0.19160000
C       -1.31190000      -0.60300000       0.07410000
C       -2.35300000       0.04700000       0.83030000
C       -3.22200000       0.59580000       1.45670000
C       -1.67490000      -1.28510000      -1.25180000
C       -0.75910000      -1.18830000      -2.45250000
C       -1.32450000      -2.11810000      -0.03680000
C       -0.04090000      -2.91170000       0.07850000
H        1.08250000       1.62240000      -0.08960000
H       -0.23550000       1.43490000      -1.27990000
H       -0.60580000       1.95970000       0.38450000
H       -3.98790000       1.07290000       2.01640000
H       -2.73390000      -1.25320000      -1.49240000
H        0.27800000      -1.02020000      -2.15660000
H       -0.79660000      -2.10970000      -3.04430000
H       -1.06050000      -0.36420000      -3.10740000
H       -2.17500000      -2.58180000       0.45460000
H        0.81930000      -2.35310000      -0.29130000
H        0.15740000      -3.16590000       1.12460000
H       -0.11580000      -3.84850000      -0.48440000
