20
Properties=species:S:1:pos:R:3 gdb_103108=T pbc="F F F"
C       -0.35290000       1.24090000       0.02970000
N        0.23660000      -0.09730000       0.03950000
C        0.82290000      -0.54930000      -1.19060000
C        1.98270000       0.23060000      -1.78480000
C        0.77260000      -2.05350000      -1.38500000
N        0.23290000      -2.97030000      -0.42460000
C       -0.17230000      -1.17160000      -2.19220000
C       -1.57720000      -1.17820000      -1.90840000
N       -2.71580000      -1.17890000      -1.70000000
H        0.35330000       2.05030000      -0.21300000
H       -1.17140000       1.26910000      -0.69450000
H       -0.77760000       1.44560000       1.01620000
H        0.91560000      -0.17910000       0.78930000
H        2.80790000       0.29460000      -1.06550000
H        2.36660000      -0.25370000      -2.68830000
H        1.69150000       1.25100000      -2.05540000
H        1.58090000      -2.48530000      -1.96870000
H        0.97400000      -3.30620000       0.18360000
H       -0.43790000      -2.48440000       0.16530000
H        0.05720000      -1.04440000      -3.24510000
