21
Properties=species:S:1:pos:R:3 gdb_19305=T pbc="F F F"
C       -0.03070000       1.49160000       0.20750000
C        0.11180000      -0.03240000       0.18810000
N       -1.19280000      -0.68120000       0.26900000
C       -1.86340000      -0.94220000      -1.00060000
C       -1.26400000      -2.05450000      -0.21300000
C        1.30460000       2.20370000       0.19250000
C        2.01900000       2.47020000      -1.11060000
C        1.41940000       3.61300000      -0.32790000
H       -0.62430000       1.80870000      -0.66010000
H       -0.60620000       1.77680000       1.09660000
H        0.67280000      -0.34140000      -0.71370000
H        0.69970000      -0.35950000       1.05510000
H       -2.93850000      -0.78760000      -1.01310000
H       -1.35090000      -0.65370000      -1.91790000
H       -0.35420000      -2.50580000      -0.60690000
H       -1.89280000      -2.72790000       0.36280000
H        1.94720000       1.96310000       1.03680000
H        3.09890000       2.37620000      -1.14230000
H        1.52240000       2.17280000      -2.02910000
H        0.52280000       4.08080000      -0.72160000
H        2.08990000       4.29880000       0.17820000
