17
Properties=species:S:1:pos:R:3 gdb_40508=T pbc="F F F"
C        0.25960000       1.51040000       0.23750000
O        1.28300000       0.53790000       0.02270000
C       -0.06710000       0.08080000       0.15300000
C       -0.40880000      -0.69360000       1.36070000
O       -0.14780000      -0.15200000       2.65500000
C       -0.41580000      -1.48700000       3.17580000
C       -1.94670000      -1.64570000       2.98190000
C       -1.62020000      -1.64820000       1.48850000
C       -0.19300000      -2.11940000       1.75280000
H        0.27080000       1.98570000       1.21570000
H        0.04040000       2.16210000      -0.60730000
H       -0.50060000      -0.30550000      -0.76990000
H        0.10310000      -1.70260000       4.10670000
H       -2.29730000      -2.62670000       3.31210000
H       -2.57380000      -0.84920000       3.39400000
H       -2.26190000      -1.88920000       0.65030000
H        0.41760000      -2.91660000       1.35360000
