21
Properties=species:S:1:pos:R:3 gdb_81709=T pbc="F F F"
O       -0.15480000       1.46840000      -0.06970000
C        0.01380000       0.06290000      -0.00330000
C       -1.38550000      -0.60240000      -0.00620000
C       -1.26740000      -0.71980000      -1.55690000
C        0.27350000      -0.58960000      -1.39540000
C        0.98190000      -1.94910000      -1.34940000
O        0.20690000      -3.00950000      -0.81820000
C       -0.18850000      -2.84170000       0.53350000
C       -1.43240000      -1.95540000       0.71510000
H        0.69570000       1.85860000      -0.29650000
H        0.70450000      -0.20590000       0.81000000
H       -2.18060000       0.05040000       0.36190000
H       -1.63760000      -1.63850000      -2.01560000
H       -1.69810000       0.14750000      -2.05930000
H        0.79980000       0.06010000      -2.10390000
H        1.22820000      -2.26600000      -2.36810000
H        1.92990000      -1.85630000      -0.79010000
H       -0.40230000      -3.84640000       0.91330000
H        0.65490000      -2.44780000       1.12290000
H       -1.56540000      -1.79510000       1.79330000
H       -2.31500000      -2.50550000       0.36690000
