25
Properties=species:S:1:pos:R:3 gdb_70246=T pbc="F F F"
C       -0.53820000       1.45940000       0.23680000
C       -0.00870000       0.06140000       0.01690000
C       -0.78430000      -1.11490000       0.56320000
C        0.57510000      -0.77930000       1.13350000
C        1.78570000      -1.53580000       0.61460000
C        1.79960000      -1.38320000      -0.94400000
C        3.21770000      -1.05470000      -1.44060000
C        1.33810000      -2.67590000      -1.64300000
C        0.82810000      -0.19150000      -1.23380000
H        0.27190000       2.19870000       0.22570000
H       -1.25390000       1.74360000      -0.54440000
H       -1.05340000       1.54240000       1.19930000
H       -1.64410000      -0.88270000       1.18420000
H       -0.91210000      -2.01040000      -0.03430000
H        0.61020000      -0.39790000       2.14950000
H        2.69310000      -1.09170000       1.04060000
H        1.78690000      -2.59160000       0.91110000
H        3.91660000      -1.86620000      -1.20740000
H        3.23190000      -0.90720000      -2.52660000
H        3.59770000      -0.14010000      -0.97290000
H        0.33310000      -2.98260000      -1.34190000
H        1.33050000      -2.54710000      -2.73130000
H        2.01710000      -3.50460000      -1.41160000
H        0.21080000      -0.38430000      -2.12000000
H        1.40680000       0.71480000      -1.45220000
