15
Properties=species:S:1:pos:R:3 gdb_65471=T pbc="F F F"
O       -0.48110000       1.28160000      -0.17710000
C       -0.17100000      -0.04790000       0.02790000
C       -0.37310000      -0.62660000       1.41450000
C       -1.33880000      -1.00680000       0.34450000
O       -2.61260000      -0.43880000       0.43420000
C       -3.14400000       0.05780000      -0.71810000
O       -4.23080000       0.54190000      -0.74980000
C        0.90710000      -0.56000000      -0.84370000
O        1.42730000       0.14660000      -1.67770000
H        0.07570000       1.55520000      -0.92510000
H        0.32160000      -1.37380000       1.78200000
H       -0.73130000       0.08950000       2.14510000
H       -1.32080000      -2.01580000      -0.05920000
H       -2.46850000      -0.05750000      -1.58300000
H        1.19870000      -1.62000000      -0.70110000
