19
Properties=species:S:1:pos:R:3 gdb_57476=T pbc="F F F"
C        0.03660000       1.52160000       0.05850000
C        0.02470000      -0.00520000       0.03910000
C        0.74840000      -0.57900000       1.26290000
O       -1.34450000      -0.40320000       0.01050000
C        0.63730000      -0.52140000      -1.28110000
O        2.07580000      -0.39410000      -1.42570000
C        2.28110000      -1.80770000      -1.64210000
C        0.78560000      -2.03790000      -1.40230000
O        0.05670000      -2.97590000      -1.26180000
H        1.06120000       1.89650000      -0.01420000
H       -0.54420000       1.91510000      -0.78030000
H       -0.40940000       1.88930000       0.98690000
H        0.28960000      -0.19240000       2.17650000
H        0.67930000      -1.67200000       1.28900000
H        1.80610000      -0.30140000       1.25380000
H       -1.37450000      -1.36770000      -0.03760000
H        0.10070000      -0.06440000      -2.12330000
H        2.63020000      -2.03730000      -2.65690000
H        2.95730000      -2.26350000      -0.90900000
