21
Properties=species:S:1:pos:R:3 gdb_91704=T pbc="F F F"
C       -0.38690000       1.52750000      -0.01470000
C        0.00120000       0.05100000      -0.00470000
C        0.92790000      -0.39560000      -1.17090000
C        1.91950000      -1.38600000      -0.49640000
C        3.29120000      -0.75040000      -0.21130000
C        3.14980000       0.30270000       0.86150000
C        2.00250000       0.46340000       1.52080000
C        0.82680000      -0.44090000       1.21290000
O        1.30630000      -1.70710000       0.75840000
H        0.50010000       2.16860000       0.00120000
H       -0.96360000       1.77350000      -0.91220000
H       -1.00530000       1.78370000       0.85300000
H       -0.90920000      -0.55840000      -0.02700000
H        0.35960000      -0.87800000      -1.96980000
H        1.45300000       0.45750000      -1.61060000
H        2.02950000      -2.32050000      -1.05190000
H        4.00870000      -1.51910000       0.10700000
H        3.70110000      -0.31170000      -1.13100000
H        4.01590000       0.91960000       1.08700000
H        1.88320000       1.23320000       2.27740000
H        0.21530000      -0.61860000       2.10190000
