20
Properties=species:S:1:pos:R:3 gdb_14181=T pbc="F F F"
C       -0.00500000       1.47930000      -0.01600000
C        0.02840000      -0.02450000      -0.06100000
C        0.58380000      -0.94160000      -1.17370000
C        0.06340000      -1.91850000      -0.10410000
C        0.52560000      -0.99740000       1.07120000
C       -0.85540000      -1.04300000       1.74930000
C       -1.17610000      -1.01200000       0.23810000
C       -2.52240000      -1.02290000      -0.43440000
H        1.00540000       1.89850000      -0.08270000
H       -0.58830000       1.88720000      -0.84970000
H       -0.45510000       1.84120000       0.91530000
H        0.06170000      -0.92860000      -2.13700000
H        1.66790000      -0.91690000      -1.33100000
H        0.07370000      -3.01010000      -0.10050000
H        1.51890000      -0.99170000       1.52400000
H       -1.11030000      -1.96490000       2.28370000
H       -1.15280000      -0.16920000       2.33980000
H       -3.11980000      -0.15300000      -0.13790000
H       -2.42400000      -1.00440000      -1.52570000
H       -3.09010000      -1.92120000      -0.16620000
