20
Properties=species:S:1:pos:R:3 gdb_22086=T pbc="F F F"
C        0.67750000       1.23000000       0.07300000
C       -0.12910000      -0.07250000       0.03450000
O       -1.52190000       0.21020000      -0.03020000
C        0.22690000      -0.93900000      -1.19380000
C        1.48200000      -1.73780000      -0.79130000
C        1.44580000      -1.75500000       0.72420000
C        0.23690000      -1.00340000       1.22070000
N        2.29980000      -2.26110000       1.51980000
O        3.33530000      -2.89860000       0.80620000
H        1.75510000       1.03790000       0.09030000
H        0.44690000       1.84420000      -0.80220000
H        0.43700000       1.80780000       0.97400000
H       -1.73290000       0.83800000       0.66890000
H       -0.61780000      -1.61090000      -1.37500000
H        0.36660000      -0.33790000      -2.09580000
H        1.50210000      -2.75220000      -1.20080000
H        2.41250000      -1.26380000      -1.12390000
H        0.41860000      -0.48400000       2.16510000
H       -0.60390000      -1.69300000       1.36990000
H        3.90210000      -3.21700000       1.51630000
