16
Properties=species:S:1:pos:R:3 gdb_50029=T pbc="F F F"
O        0.44470000       0.09100000       0.73790000
C        0.24090000       1.17050000       0.24920000
N        1.16500000       1.85780000      -0.54210000
C        2.56460000       1.94660000      -0.22460000
C        1.67980000       3.17180000      -0.25380000
C        1.73040000       4.41830000      -1.15460000
C        1.63570000       5.31850000       0.12040000
C        1.39360000       4.04500000       0.95780000
O        1.04810000       3.81620000       2.07990000
H       -0.72620000       1.70170000       0.30460000
H        2.87940000       1.57320000       0.74690000
H        3.25540000       1.78790000      -1.04820000
H        2.63780000       4.52970000      -1.74940000
H        0.86020000       4.50200000      -1.80850000
H        2.56530000       5.82710000       0.39070000
H        0.81950000       6.04390000       0.15170000
