16
Properties=species:S:1:pos:R:3 gdb_19737=T pbc="F F F"
C       -0.03260000       1.57690000       0.04650000
C        1.49850000       1.37540000       0.00430000
O        1.76130000       0.74880000       1.27160000
C        0.88540000      -0.40240000       1.17760000
C        1.75050000      -1.50620000       0.57410000
O        2.06910000      -0.98630000      -0.73080000
C        1.23610000       0.13000000      -0.92010000
C       -0.02020000       0.03070000      -0.00730000
H       -0.43090000       2.06990000       0.93460000
H       -0.44500000       2.01580000      -0.86480000
H        2.22640000       2.16160000      -0.18740000
H        0.42220000      -0.61780000       2.14120000
H        2.67240000      -1.64920000       1.14490000
H        1.22500000      -2.46840000       0.48100000
H        1.09380000       0.33420000      -1.98030000
H       -0.88610000      -0.58670000      -0.23990000
