16
Properties=species:S:1:pos:R:3 gdb_20213=T pbc="F F F"
C        0.00390000       1.56160000      -0.15120000
O        1.35570000       1.98560000       0.03790000
C        2.06260000       0.97800000       0.73340000
O        1.91500000       1.10760000       2.13350000
C        0.72220000       0.43400000       2.54130000
C        0.36000000      -0.51880000       1.40950000
C       -0.00330000       0.05150000       0.04770000
C        1.41070000      -0.35770000       0.34790000
H       -0.65950000       2.08650000       0.55040000
H       -0.30110000       1.82880000      -1.16900000
H        3.12100000       1.10040000       0.50220000
H        0.93520000      -0.11240000       3.46660000
H       -0.07150000       1.16400000       2.75360000
H       -0.03510000      -1.49520000       1.66450000
H       -0.63750000      -0.54960000      -0.59340000
H        1.95920000      -1.15600000      -0.13280000
