16
Properties=species:S:1:pos:R:3 gdb_41074=T pbc="F F F"
C        0.00090000       1.47110000       0.22040000
O        1.37860000       1.59820000      -0.30620000
C        1.19560000       0.30590000      -0.85860000
C        1.93250000      -0.95080000      -1.34630000
C        1.13990000      -1.04880000      -2.63610000
C        0.61210000      -1.79650000      -1.45470000
N       -0.53930000      -0.84010000      -1.15150000
C        0.04070000      -0.08180000       0.02170000
C        0.24610000       0.08830000      -2.10540000
H       -0.04420000       1.81090000       1.25660000
H       -0.71250000       2.02570000      -0.39610000
H        2.86940000      -1.40610000      -1.05780000
H        1.40700000      -1.37110000      -3.63370000
H        0.56470000      -2.85620000      -1.24010000
H        0.15490000      -0.65660000       0.94180000
H       -0.27670000       0.85830000      -2.66660000
