15
Properties=species:S:1:pos:R:3 gdb_26710=T pbc="F F F"
N        0.09120000       1.44660000      -0.12060000
C        0.03050000       0.03990000      -0.03840000
C       -1.07380000      -0.76650000      -0.01960000
O       -2.40120000      -0.44870000       0.06290000
N       -0.65810000      -2.10050000      -0.10760000
C        0.71280000      -2.12120000      -0.11190000
O        1.36950000      -3.30870000      -0.11080000
C        1.17230000      -0.83230000      -0.10080000
O        2.50550000      -0.47230000      -0.10100000
H        0.76900000       1.81830000       0.53730000
H       -0.81200000       1.85380000       0.09540000
H       -2.77750000      -0.40240000      -0.82530000
H       -1.22290000      -2.87410000       0.20200000
H        2.31090000      -3.09930000      -0.08890000
H        2.67790000       0.05020000      -0.89310000
