21
Properties=species:S:1:pos:R:3 gdb_48625=T pbc="F F F"
O       -0.19050000       0.04250000      -0.29950000
C       -0.00060000       1.16100000       0.11060000
C        1.31170000       1.88480000       0.06370000
C        2.56040000       1.14920000      -0.49550000
C        2.99210000       2.52870000      -1.07370000
C        1.48440000       2.89500000      -1.12550000
C        3.68220000       3.38520000       0.00090000
C        3.11200000       3.07390000       1.40570000
C        1.62890000       2.63180000       1.37740000
H       -0.83970000       1.75650000       0.54540000
H        3.22290000       0.64210000       0.21020000
H        2.26460000       0.44620000      -1.27640000
H        3.54220000       2.54090000      -2.01740000
H        1.00180000       2.52920000      -2.03560000
H        1.19820000       3.93640000      -0.94820000
H        4.76260000       3.20170000       0.00200000
H        3.54840000       4.44440000      -0.25170000
H        3.69930000       2.26060000       1.84320000
H        3.24180000       3.92810000       2.07690000
H        0.95640000       3.49420000       1.46510000
H        1.42750000       1.99120000       2.24440000
