18
Properties=species:S:1:pos:R:3 gdb_85809=T pbc="F F F"
C        0.41870000       1.35320000      -0.02190000
C       -0.02840000      -0.11420000      -0.03530000
C        0.80550000      -1.02240000      -1.00610000
C        1.62450000      -1.56400000       0.18310000
O        2.86270000      -0.86950000       0.29250000
C        0.56750000      -0.97040000       1.16730000
O        1.06540000      -0.30220000       2.27900000
C       -1.47330000      -0.21880000      -0.18360000
N       -2.62000000      -0.32660000      -0.29370000
H        1.50900000       1.41390000       0.01640000
H        0.08000000       1.86300000      -0.92800000
H        0.00770000       1.87350000       0.84650000
H        0.20620000      -1.79400000      -1.49130000
H        1.38830000      -0.48710000      -1.75770000
H        1.77980000      -2.64630000       0.22210000
H        3.43740000      -1.37100000       0.87940000
H       -0.15730000      -1.71260000       1.50950000
H        1.90870000       0.08180000       2.00020000
