16
Properties=species:S:1:pos:R:3 gdb_34309=T pbc="F F F"
N        0.07310000      -1.08690000      -0.03430000
C        0.03270000       0.06590000      -0.02540000
C       -0.04660000       1.52550000       0.04900000
C       -0.83520000       2.11800000       1.24190000
C       -1.13260000       3.53810000       0.67190000
C       -0.44900000       3.44710000      -0.70970000
C        1.07760000       3.40420000      -0.52440000
O        1.26350000       2.09260000       0.04550000
O       -0.69090000       2.07530000      -1.08340000
H       -1.74610000       1.54730000       1.43150000
H       -0.22180000       2.12160000       2.14340000
H       -2.20520000       3.70300000       0.55640000
H       -0.72390000       4.34210000       1.28770000
H       -0.81770000       4.11480000      -1.48590000
H        1.61630000       3.46810000      -1.47530000
H        1.45340000       4.16650000       0.16510000
