14
Properties=species:S:1:pos:R:3 gdb_866=T pbc="F F F"
C        0.10560000       1.46220000      -0.07600000
C       -0.05750000      -0.00850000       0.03110000
C       -1.09180000      -0.84600000       0.28040000
N       -0.64610000      -2.16400000       0.25820000
C        0.61940000      -2.07310000       0.00060000
C        1.61780000      -3.16380000      -0.14400000
O        1.05650000      -0.79240000      -0.15180000
H        0.81760000       1.84420000       0.66440000
H        0.47170000       1.75660000      -1.06610000
H       -0.85640000       1.95190000       0.09160000
H       -2.12370000      -0.59860000       0.47420000
H        2.07410000      -3.15350000      -1.13950000
H        2.42520000      -3.06130000       0.58870000
H        1.11840000      -4.12080000       0.00830000
