17
Properties=species:S:1:pos:R:3 gdb_46886=T pbc="F F F"
O       -0.10260000       0.75890000      -1.54330000
C       -0.01660000       1.35270000      -0.48370000
C       -1.29540000       1.53660000       0.34210000
O       -1.33120000       2.67920000       1.17000000
C       -0.63050000       2.66550000       2.36570000
C        0.02430000       1.47090000       2.97100000
C        0.89360000       2.59950000       2.39220000
C        1.65870000       2.39030000       1.15650000
C        1.28410000       1.88300000      -0.03340000
H       -2.11070000       1.65740000      -0.37460000
H       -1.49590000       0.61590000       0.90780000
H       -1.07640000       3.38290000       3.04710000
H       -0.00860000       1.36270000       4.04940000
H        0.05080000       0.53320000       2.42970000
H        1.38810000       3.23140000       3.12200000
H        2.70120000       2.69400000       1.23200000
H        2.04260000       1.77570000      -0.80390000
