20
Properties=species:S:1:pos:R:3 gdb_78420=T pbc="F F F"
C        0.01790000       1.54110000       0.02000000
C        0.01270000       0.02800000       0.02170000
C        1.30380000      -0.70530000      -0.25910000
C        0.71590000      -0.70160000       1.14260000
C        0.43300000      -2.18100000       1.29950000
C       -0.10810000      -2.79380000      -0.02160000
C        0.70830000      -4.04030000       0.32400000
N        1.67890000      -2.93300000       0.72820000
C        1.21460000      -2.18590000      -0.56430000
H        0.96080000       1.93480000       0.41390000
H       -0.10930000       1.93530000      -0.99410000
H       -0.79330000       1.93950000       0.63900000
H       -0.90360000      -0.41300000      -0.36140000
H        2.19800000      -0.14990000      -0.51580000
H        1.16060000      -0.14350000       1.95800000
H        0.08190000      -2.55640000       2.26250000
H       -1.11750000      -2.72470000      -0.44510000
H        0.37460000      -4.65940000       1.16200000
H        1.07100000      -4.66370000      -0.49860000
H        1.65480000      -2.56620000      -1.48800000
