19
Properties=species:S:1:pos:R:3 gdb_38757=T pbc="F F F"
C       -0.05130000       1.53010000       0.19750000
C        1.48890000       1.56930000      -0.04070000
C        1.94320000       1.94170000      -1.45760000
C        1.31780000       1.02940000      -2.53990000
C        1.04130000      -0.37760000      -1.97820000
O       -0.22440000      -0.44060000      -1.32470000
C       -0.02650000      -0.00810000       0.01450000
C        1.52590000       0.01100000       0.14080000
O        2.00100000      -0.69980000      -0.98640000
H       -0.32220000       1.81420000       1.21830000
H       -0.68630000       2.07900000      -0.50230000
H        2.05460000       2.13890000       0.70060000
H        1.72040000       2.99320000      -1.66600000
H        3.03250000       1.83600000      -1.49700000
H        0.37240000       1.43060000      -2.91750000
H        1.99800000       0.95250000      -3.39420000
H        1.05580000      -1.15240000      -2.74840000
H       -0.64270000      -0.62430000       0.67160000
H        1.99770000      -0.38050000       1.04080000
