17
Properties=species:S:1:pos:R:3 gdb_66428=T pbc="F F F"
C       -0.05030000       1.43640000      -0.02380000
C       -0.01690000      -0.05550000      -0.08970000
C        0.82730000      -1.04220000      -0.95500000
C       -0.30060000      -2.08620000      -0.86870000
C        0.79290000      -2.06860000       0.17150000
O        1.63200000      -3.10550000       0.48640000
C       -0.03360000      -1.07950000       1.06430000
C       -1.12990000      -1.07650000      -0.00090000
O       -2.47430000      -0.83290000       0.10130000
H        0.91910000       1.84820000       0.28010000
H       -0.31190000       1.87340000      -0.99450000
H       -0.79990000       1.76910000       0.70150000
H        1.53250000      -0.88680000      -1.76210000
H       -0.55970000      -2.85540000      -1.58390000
H        2.47400000      -2.73660000       0.77850000
H       -0.09050000      -0.89130000       2.12920000
H       -2.86980000      -1.52020000       0.65030000
