20
Properties=species:S:1:pos:R:3 gdb_114094=T pbc="F F F"
C       -0.35260000       1.49620000      -0.08210000
C        0.11340000       0.06360000       0.02430000
C       -0.95250000      -1.05150000       0.16300000
O       -0.26110000      -1.64110000       1.29080000
C        0.76830000      -0.63530000       1.25290000
C        1.96070000      -1.00170000       0.33280000
C        2.22770000      -2.48090000       0.12540000
O        3.05420000      -2.59850000      -1.02770000
N        1.30340000      -0.27380000      -0.78840000
H        0.48920000       2.18350000       0.03590000
H       -0.79450000       1.68090000      -1.06890000
H       -1.11010000       1.72690000       0.67410000
H       -1.95420000      -0.70870000       0.45400000
H       -1.03970000      -1.74010000      -0.68760000
H        0.96060000      -0.19450000       2.23360000
H        2.89920000      -0.50650000       0.61390000
H        2.72230000      -2.88980000       1.02150000
H        1.27850000      -3.01710000      -0.00280000
H        3.16330000      -3.53390000      -1.22160000
H        1.15120000      -0.82540000      -1.62720000
