17
Properties=species:S:1:pos:R:3 gdb_16484=T pbc="F F F"
C       -0.06630000       1.47910000       0.08640000
C       -0.07740000      -0.01470000       0.03240000
C        0.04470000      -1.04530000       1.10660000
C       -0.43200000      -2.10230000       0.03170000
C        1.02020000      -2.08050000      -0.45560000
N        1.21490000      -0.75120000       0.22510000
C       -1.05020000      -0.91130000      -0.75180000
O       -2.40380000      -0.63510000      -0.47030000
H        0.57560000       1.83470000       0.89670000
H        0.31270000       1.89820000      -0.85220000
H       -1.07940000       1.86340000       0.24250000
H        0.08350000      -1.00250000       2.18770000
H       -1.01020000      -3.01190000       0.18520000
H        1.66800000      -2.81320000       0.03210000
H        1.20470000      -2.08490000      -1.53710000
H       -0.97530000      -0.94290000      -1.84420000
H       -2.49320000      -0.54590000       0.48660000
