14
Properties=species:S:1:pos:R:3 gdb_5786=T pbc="F F F"
C        0.21430000       1.59320000       0.08340000
C        1.24310000       0.57300000      -0.22740000
N       -0.14190000       0.16360000       0.06400000
C       -0.36930000      -0.44450000       1.30780000
C       -1.26420000      -1.42650000       1.57610000
O       -1.16620000      -1.73390000       2.90720000
C       -0.20490000      -0.90830000       3.37130000
N        0.30850000      -0.12170000       2.48520000
H        0.27530000       2.07440000       1.05490000
H       -0.23710000       2.18130000      -0.71000000
H        1.55810000       0.40120000      -1.25220000
H        1.98830000       0.37590000       0.53750000
H       -1.98350000      -1.97220000       0.99300000
H        0.03640000      -0.98550000       4.42010000
