15
Properties=species:S:1:pos:R:3 gdb_18212=T pbc="F F F"
O       -0.06030000      -0.03700000      -0.02220000
C        0.00810000       1.16970000       0.06510000
C        1.25910000       1.92700000       0.04090000
C        1.35520000       3.26730000       0.08700000
C        2.78350000       3.74640000      -0.02600000
C        3.58250000       2.44520000      -0.07040000
N        3.44040000       1.63930000       1.15750000
C        2.61720000       1.30980000      -0.03890000
H       -0.90880000       1.79400000       0.15770000
H        0.51380000       3.94300000       0.20310000
H        2.92510000       4.34760000      -0.93400000
H        3.07170000       4.37780000       0.82290000
H        4.51140000       2.39820000      -0.62760000
H        4.21760000       0.98250000       1.20480000
H        2.76750000       0.36460000      -0.54520000
