14
Properties=species:S:1:pos:R:3 gdb_49971=T pbc="F F F"
O        0.03730000       0.26090000      -0.56750000
C        0.02330000       1.39090000      -0.16460000
N        1.09700000       1.97020000       0.53580000
C        2.45730000       1.84250000       0.14740000
C        1.76120000       3.21500000       0.18670000
C        1.50560000       3.85200000      -1.15150000
O        0.93110000       3.28730000      -2.04820000
C        2.09510000       4.12170000       1.33330000
O        2.42810000       5.27070000       1.19830000
H       -0.85360000       2.05780000      -0.19650000
H        3.17530000       1.60370000       0.92780000
H        2.66740000       1.45060000      -0.84480000
H        1.89000000       4.88380000      -1.24300000
H        2.01380000       3.63140000       2.32700000
