23
Properties=species:S:1:pos:R:3 gdb_94847=T pbc="F F F"
C        0.37760000       1.54310000      -0.21730000
C        0.03850000       0.08280000       0.06740000
C        0.31860000      -0.87420000      -1.11300000
C        1.68610000      -1.46650000      -0.74670000
C        1.59820000      -1.53500000       0.78030000
C        1.11240000      -2.90420000       1.35440000
C        2.59190000      -3.23830000       1.68560000
C        2.92350000      -1.72640000       1.55230000
O        0.85660000      -0.38550000       1.15190000
H        1.39710000       1.63930000      -0.60570000
H       -0.31540000       1.96540000      -0.95290000
H        0.30750000       2.13290000       0.70090000
H       -1.01190000       0.01510000       0.38050000
H       -0.43940000      -1.66300000      -1.15400000
H        0.31290000      -0.35860000      -2.07660000
H        1.87920000      -2.43630000      -1.21210000
H        2.49480000      -0.78640000      -1.03770000
H        0.52170000      -2.73770000       2.25890000
H        0.56500000      -3.57670000       0.68730000
H        2.79340000      -3.71000000       2.64920000
H        3.06680000      -3.83550000       0.90250000
H        3.84810000      -1.43710000       1.04490000
H        2.87010000      -1.21300000       2.51590000
