18
Properties=species:S:1:pos:R:3 gdb_60672=T pbc="F F F"
C        0.08060000       1.50490000      -0.00160000
C       -0.10530000      -0.02720000       0.02170000
C        0.47930000      -0.61390000       1.32770000
O        1.45490000      -0.16290000       1.86270000
C       -1.53390000      -0.37110000      -0.01750000
N       -2.65610000      -0.64790000      -0.03040000
C        0.58850000      -0.66900000      -1.19690000
C        2.08530000      -0.81800000      -1.26060000
C        1.20840000      -2.04300000      -1.17360000
H        1.13790000       1.73410000       0.13710000
H       -0.25480000       1.91040000      -0.95900000
H       -0.48960000       1.98310000       0.79850000
H       -0.05400000      -1.49940000       1.72970000
H        0.09400000      -0.38790000      -2.12190000
H        2.57170000      -0.59170000      -2.20240000
H        2.66090000      -0.55110000      -0.38160000
H        1.21650000      -2.60090000      -0.24370000
H        1.08530000      -2.66450000      -2.05290000
