19
Properties=species:S:1:pos:R:3 gdb_97985=T pbc="F F F"
C        0.05460000       1.56090000       0.07520000
C       -0.05200000       0.02840000      -0.03450000
C        0.61940000      -0.50320000      -1.21550000
C        1.17930000      -0.92620000      -2.19340000
C        1.85690000      -1.41680000      -3.38360000
O        1.91900000      -2.83490000      -3.35870000
C        2.57480000      -3.34480000      -4.50410000
C        2.61730000      -4.79900000      -4.44550000
C        2.66720000      -5.99840000      -4.42500000
H        1.10030000       1.87470000       0.13270000
H       -0.39590000       2.04510000      -0.79540000
H       -0.46190000       1.91430000       0.97240000
H        0.37560000      -0.43380000       0.86420000
H       -1.10930000      -0.26520000      -0.05230000
H        1.32510000      -1.07640000      -4.28950000
H        2.87530000      -0.99360000      -3.44090000
H        2.05310000      -3.02570000      -5.42350000
H        3.60210000      -2.94570000      -4.57210000
H        2.70660000      -7.05930000      -4.39830000
