19
Properties=species:S:1:pos:R:3 gdb_90671=T pbc="F F F"
O        0.08190000       1.30930000      -0.27270000
C       -0.01330000      -0.08590000      -0.09880000
C        0.34680000      -0.60700000       1.33470000
C       -1.07920000      -1.14800000       1.49560000
C       -1.43580000      -0.63690000       0.06960000
C       -1.39390000      -2.09590000       0.39170000
C       -0.64100000      -3.28030000      -0.21800000
C       -2.01270000      -3.98250000      -0.12890000
O       -2.63300000      -2.80580000       0.44200000
H       -0.47000000       1.72810000       0.39780000
H        0.56690000      -0.51560000      -0.92220000
H        1.16390000      -1.33200000       1.42110000
H        0.56250000       0.23970000       1.99210000
H       -1.67740000      -1.14400000       2.39940000
H       -2.34320000      -0.18050000      -0.31020000
H       -0.25960000      -3.12570000      -1.22900000
H        0.14620000      -3.70670000       0.40650000
H       -2.47070000      -4.25500000      -1.08610000
H       -2.06630000      -4.83760000       0.55400000
