16
Properties=species:S:1:pos:R:3 gdb_4971=T pbc="F F F"
C       -0.01100000       1.50580000      -0.01840000
C       -0.00130000      -0.00030000       0.00300000
N       -0.06010000      -0.62980000      -1.17110000
C       -0.04200000      -1.96530000      -1.19530000
C        0.03380000      -2.73760000      -0.04270000
C        0.09010000      -2.09350000       1.18610000
C        0.07480000      -0.69820000       1.22970000
N        0.19380000      -0.00770000       2.43680000
H        0.86820000       1.92070000       0.48990000
H       -0.01860000       1.85010000      -1.05290000
H       -0.89770000       1.91760000       0.48430000
H       -0.09000000      -2.43020000      -2.17640000
H        0.04490000      -3.82040000      -0.10280000
H        0.14810000      -2.66230000       2.11020000
H       -0.05520000      -0.54560000       3.25470000
H       -0.23480000       0.90590000       2.45330000
