19
Properties=species:S:1:pos:R:3 gdb_54533=T pbc="F F F"
N       -0.19280000       1.35320000       0.09600000
C        0.02430000       0.01890000      -0.08560000
O        1.10720000      -0.47120000      -0.34830000
C       -1.21840000      -0.82550000       0.03210000
C       -2.42890000      -0.50990000      -0.78680000
N       -2.42140000      -0.21060000       0.64660000
C       -3.04500000      -1.25330000       1.48710000
C       -2.45250000      -2.62100000       1.06970000
C       -1.06200000      -2.26520000       0.50050000
H        0.61350000       1.95460000       0.14060000
H       -1.04890000       1.63260000       0.55130000
H       -2.42020000       0.36390000      -1.43110000
H       -3.02900000      -1.33910000      -1.15410000
H       -2.78800000      -1.01970000       2.52560000
H       -4.13460000      -1.20790000       1.39610000
H       -2.39640000      -3.31550000       1.91100000
H       -3.07420000      -3.09920000       0.30750000
H       -0.74490000      -2.93490000      -0.30200000
H       -0.28710000      -2.30330000       1.27200000
