18
Properties=species:S:1:pos:R:3 gdb_128653=T pbc="F F F"
C       -0.12510000       1.39850000      -0.02120000
O       -0.04220000      -0.02170000       0.00570000
C       -1.22010000      -0.67210000       0.01890000
N       -2.38730000      -0.04750000       0.00670000
N       -3.30510000      -1.06580000       0.04370000
C       -4.71460000      -0.76590000       0.04740000
C       -2.71100000      -2.28550000       0.04490000
N       -3.47190000      -3.45740000       0.12880000
C       -1.34330000      -2.07950000       0.03760000
H        0.90440000       1.76000000      -0.02970000
H       -0.65490000       1.74540000      -0.91490000
H       -0.65190000       1.77910000       0.86040000
H       -5.11430000      -0.63410000      -0.96650000
H       -5.25110000      -1.57960000       0.54160000
H       -4.87010000       0.15990000       0.60380000
H       -4.13460000      -3.56160000      -0.63130000
H       -2.87950000      -4.27660000       0.16030000
H       -0.55930000      -2.81760000       0.03400000
