19
Properties=species:S:1:pos:R:3 gdb_6382=T pbc="F F F"
C       -0.06490000       1.34890000      -0.04830000
O        0.00310000      -0.07370000       0.05760000
C        0.71220000      -0.52680000       1.12640000
O        1.24560000       0.19070000       1.94530000
N        0.74410000      -1.88600000       1.12000000
C        1.30190000      -2.64980000       2.23230000
C        0.28640000      -2.82370000       3.37000000
C        1.82790000      -3.98920000       1.71380000
H        0.93290000       1.78090000      -0.16290000
H       -0.66780000       1.55090000      -0.93450000
H       -0.53390000       1.78550000       0.83740000
H        0.15750000      -2.35550000       0.44830000
H        2.13800000      -2.05180000       2.60660000
H       -0.05690000      -1.84770000       3.72230000
H       -0.58400000      -3.39910000       3.03410000
H        0.73790000      -3.35420000       4.21480000
H        2.57360000      -3.84090000       0.92790000
H        2.28790000      -4.55960000       2.52560000
H        1.01400000      -4.59960000       1.30320000
