18
Properties=species:S:1:pos:R:3 gdb_124950=T pbc="F F F"
C        0.14470000       1.49500000       0.03630000
C        0.04370000       0.00880000      -0.01050000
C       -0.14720000      -0.84230000      -1.08650000
C       -0.15920000      -2.14540000      -0.52440000
N        0.00960000      -2.11330000       0.79290000
N        0.12970000      -0.80020000       1.07740000
N       -0.28730000      -0.38880000      -2.42140000
C        0.27350000      -1.21790000      -3.49490000
C       -1.19680000      -1.12380000      -3.30860000
H        1.10970000       1.82950000       0.43460000
H        0.04150000       1.88050000      -0.97990000
H       -0.64240000       1.94170000       0.65490000
H       -0.28280000      -3.09800000      -1.01940000
H        0.26870000      -0.52340000       2.03450000
H        0.76230000      -0.67000000      -4.29580000
H        0.76110000      -2.14760000      -3.21240000
H       -1.71160000      -1.98940000      -2.89900000
H       -1.79650000      -0.50620000      -3.97150000
