18
Properties=species:S:1:pos:R:3 gdb_13989=T pbc="F F F"
O        0.10260000       1.39830000      -0.10510000
C        0.02210000      -0.01630000      -0.17470000
C       -1.39260000      -0.53760000       0.11570000
C       -1.47320000      -2.02890000       0.04080000
C       -1.63700000      -2.87060000      -1.19030000
C       -2.59800000      -3.04110000      -0.02740000
C       -1.86620000      -3.73910000       1.11040000
O       -0.77420000      -2.78170000       1.04980000
H       -0.03690000       1.65530000       0.81180000
H        0.31150000      -0.28300000      -1.19630000
H        0.74000000      -0.49820000       0.50460000
H       -1.70010000      -0.20960000       1.11800000
H       -2.09190000      -0.09530000      -0.60210000
H       -2.06060000      -2.36460000      -2.05250000
H       -0.90640000      -3.64190000      -1.41970000
H       -3.66750000      -2.90530000      -0.11560000
H       -2.38130000      -3.67250000       2.07560000
H       -1.52660000      -4.76850000       0.94330000
