23
Properties=species:S:1:pos:R:3 gdb_61589=T pbc="F F F"
O       -0.26050000       1.34710000      -0.02290000
C       -0.11290000      -0.06870000       0.02010000
C        0.60620000      -0.61670000      -1.22230000
C       -0.04030000      -0.22050000      -2.53270000
C        0.39200000       1.02060000      -3.27040000
C        0.71880000      -0.34230000      -3.82990000
C        0.56150000      -0.53420000       1.30470000
C        1.66940000       0.26890000       1.94070000
C        0.31510000       0.18270000       2.60300000
H        0.56850000       1.72100000      -0.33780000
H       -1.14410000      -0.44950000       0.01890000
H        1.65340000      -0.27940000      -1.20620000
H        0.64260000      -1.71130000      -1.13850000
H       -1.10250000      -0.44760000      -2.58700000
H       -0.36350000       1.61990000      -3.76600000
H        1.21130000       1.60130000      -2.85740000
H        1.75110000      -0.67450000      -3.78390000
H        0.18550000      -0.68030000      -4.71160000
H        0.66570000      -1.61490000       1.36460000
H        2.50420000      -0.26350000       2.38260000
H        1.93750000       1.22100000       1.49450000
H       -0.30530000       1.07040000       2.55880000
H        0.21630000      -0.40450000       3.50920000
