17
Properties=species:S:1:pos:R:3 gdb_78704=T pbc="F F F"
O       -0.02630000       1.47700000      -0.10480000
C        0.03760000       0.07300000      -0.03440000
C        0.04980000      -0.59810000       1.35560000
C       -1.47550000      -0.27690000       1.58600000
C       -1.32870000      -0.61020000       0.05100000
C       -0.71340000      -1.85450000       0.79610000
C       -1.74760000      -1.73860000       1.90680000
C       -2.08470000      -2.50420000       3.09880000
O       -2.99690000      -2.38300000       1.97990000
H        0.86820000       1.82600000      -0.04350000
H        0.74030000      -0.33990000      -0.77290000
H        0.82550000      -0.61220000       2.12270000
H       -1.89150000       0.63110000       2.01550000
H       -2.13480000      -0.63320000      -0.68110000
H       -0.26820000      -2.73410000       0.33280000
H       -1.66990000      -3.50040000       3.24800000
H       -2.40160000      -1.99470000       4.00800000
