18
Properties=species:S:1:pos:R:3 gdb_91878=T pbc="F F F"
C       -0.00400000       1.52270000       0.07030000
C       -0.01890000       0.01040000      -0.07510000
C        0.81270000      -0.50050000      -1.25110000
C        0.91940000      -2.01760000      -1.21460000
N        2.09890000      -2.53720000      -0.51570000
C        0.76050000      -2.67840000       0.10960000
C        0.58920000      -1.85470000       1.35560000
O        0.60490000      -2.33000000       2.45780000
O        0.46030000      -0.51670000       1.18850000
H        1.01920000       1.88130000       0.21720000
H       -0.41340000       1.99360000      -0.82850000
H       -0.60340000       1.83060000       0.93040000
H       -1.05490000      -0.33640000      -0.19590000
H        0.34180000      -0.16870000      -2.18210000
H        1.81670000      -0.06630000      -1.20990000
H        0.56330000      -2.56280000      -2.08470000
H        2.37810000      -3.43770000      -0.89700000
H        0.33170000      -3.67190000       0.18410000
