19
Properties=species:S:1:pos:R:3 gdb_54143=T pbc="F F F"
C       -0.06390000       1.49110000       0.13500000
C        0.04320000       0.01220000      -0.16810000
O        1.10280000      -0.51990000      -0.44080000
C       -1.22580000      -0.77490000      -0.11520000
O       -2.37720000       0.00160000      -0.00150000
C       -1.30120000      -2.09210000      -0.88160000
C       -1.26580000      -2.14810000       0.60730000
C       -0.10220000      -2.72540000       1.36840000
O       -2.53000000      -2.38810000       1.18650000
H        0.93140000       1.93570000       0.11600000
H       -0.71230000       1.97850000      -0.60010000
H       -0.53880000       1.64910000       1.10840000
H       -3.01000000      -0.53950000       0.49460000
H       -2.24780000      -2.29830000      -1.36880000
H       -0.40290000      -2.38680000      -1.41230000
H        0.83930000      -2.45390000       0.89050000
H       -0.08010000      -2.34910000       2.39960000
H       -0.18500000      -3.81670000       1.40460000
H       -2.44270000      -2.26030000       2.13860000
