17
Properties=species:S:1:pos:R:3 gdb_19692=T pbc="F F F"
C        0.16980000       1.34290000       0.01610000
O       -0.18110000      -0.00510000       0.24070000
C        0.62110000      -0.64080000       1.20310000
C        0.19050000      -2.09980000       1.31260000
C        1.19660000      -2.52700000       0.31280000
C        1.97370000      -1.19860000       0.66040000
C        2.49910000      -1.97190000       1.87670000
N        1.35950000      -2.94420000       1.73350000
H        1.18590000       1.44710000      -0.39210000
H       -0.54190000       1.74370000      -0.70940000
H        0.10760000       1.93700000       0.94100000
H        0.67590000      -0.03120000       2.12000000
H       -0.79730000      -2.48990000       1.51760000
H        1.16700000      -3.20610000      -0.52780000
H        2.60610000      -0.59610000       0.01120000
H        3.43350000      -2.50840000       1.69430000
H        2.55310000      -1.45120000       2.84100000
