21
Properties=species:S:1:pos:R:3 gdb_72260=T pbc="F F F"
C        0.03560000       1.54900000      -0.00280000
C       -0.00650000       0.04080000      -0.06850000
C        0.36290000      -0.73700000      -1.34840000
C       -0.56300000      -1.88310000      -0.84200000
C        0.24260000      -2.86060000       0.02600000
C        1.11520000      -2.03310000       1.00420000
C        0.36870000      -0.72850000       1.25930000
O       -1.03610000      -1.06170000       1.49810000
C       -1.27160000      -0.82700000       0.10340000
H        1.06930000       1.91580000       0.01440000
H       -0.46000000       1.99770000      -0.87070000
H       -0.46380000       1.91730000       0.90000000
H       -0.04600000      -0.22920000      -2.22790000
H        1.41230000      -0.98090000      -1.54450000
H       -1.18670000      -2.39060000      -1.58010000
H       -0.44390000      -3.49540000       0.59280000
H        0.85760000      -3.51610000      -0.59900000
H        1.27280000      -2.57180000       1.94370000
H        2.10560000      -1.81960000       0.58590000
H        0.78170000      -0.12310000       2.07180000
H       -2.29750000      -0.53010000      -0.12650000
