16
Properties=species:S:1:pos:R:3 gdb_45418=T pbc="F F F"
O       -0.01310000      -0.02140000      -0.01780000
C        0.01150000       1.17460000       0.01650000
O       -1.12590000       1.91640000       0.08180000
C       -0.87080000       3.35200000       0.05070000
C       -0.04310000       3.64740000       1.32250000
N        1.20750000       2.86890000       1.24990000
C        1.25040000       2.07190000      -0.01390000
C        1.09300000       2.99380000      -1.21020000
C       -0.04100000       3.69540000      -1.15870000
H       -1.85230000       3.82200000       0.07480000
H        0.14830000       4.72170000       1.40860000
H       -0.63060000       3.33170000       2.19240000
H        2.00160000       3.49910000       1.23680000
H        2.14620000       1.45500000      -0.02780000
H        1.85120000       3.07260000      -1.98050000
H       -0.34790000       4.46020000      -1.86110000
