18
Properties=species:S:1:pos:R:3 gdb_126386=T pbc="F F F"
C        0.44240000       0.83210000      -0.78510000
C       -0.27570000       0.44020000       0.51790000
C       -1.59640000      -0.21550000       0.29460000
N       -2.74120000       0.28230000       0.65540000
N       -3.68000000      -0.64230000       0.24560000
C       -5.08730000      -0.44010000       0.47800000
C       -3.12690000      -1.73880000      -0.38120000
O       -3.66920000      -2.71850000      -0.85120000
N       -1.76260000      -1.42810000      -0.33500000
H        1.40030000       1.31050000      -0.56310000
H        0.64500000      -0.04060000      -1.41440000
H       -0.16370000       1.53140000      -1.36790000
H        0.36760000      -0.22770000       1.10560000
H       -0.46230000       1.32590000       1.13050000
H       -5.29880000      -0.36520000       1.54910000
H       -5.43680000       0.47080000      -0.01750000
H       -5.60550000      -1.30570000       0.06180000
H       -1.05250000      -2.03350000      -0.70800000
