19
Properties=species:S:1:pos:R:3 gdb_8683=T pbc="F F F"
C        0.00760000       1.55820000       0.13890000
C       -0.02250000       0.03800000      -0.02610000
C        0.72460000      -0.47810000      -1.27950000
O        2.07720000      -0.02210000      -1.29340000
C        0.65810000      -2.02200000      -1.36450000
C        1.38620000      -2.61440000      -2.57200000
C        0.10130000       0.10210000      -2.48950000
N       -0.43490000       0.52940000      -3.41900000
H        1.03620000       1.92730000       0.14820000
H       -0.51960000       2.05410000      -0.68120000
H       -0.47380000       1.85050000       1.07620000
H        0.44610000      -0.44770000       0.84070000
H       -1.05580000      -0.32490000      -0.06270000
H        2.50540000      -0.38870000      -0.51090000
H        1.09340000      -2.40660000      -0.43210000
H       -0.39470000      -2.32580000      -1.36260000
H        0.91820000      -2.29780000      -3.50860000
H        2.43000000      -2.29130000      -2.59270000
H        1.36240000      -3.70700000      -2.53440000
