15
Properties=species:S:1:pos:R:3 gdb_22697=T pbc="F F F"
O       -0.09960000       1.36610000       0.07020000
N        0.05450000      -0.04050000       0.00640000
C       -1.06280000      -0.61620000      -0.06290000
C       -2.57340000      -0.45300000      -0.01040000
C       -2.65980000      -1.57150000      -1.08610000
C       -1.58400000      -2.05190000      -0.05340000
N       -2.59550000      -1.58840000       1.02280000
C       -0.87700000      -3.29260000       0.01030000
C       -0.27580000      -4.33190000       0.05760000
H        0.81660000       1.66090000       0.10790000
H       -3.17970000       0.44070000       0.09990000
H       -3.58290000      -2.15180000      -1.05530000
H       -2.31020000      -1.34020000      -2.09180000
H       -2.07750000      -1.30060000       1.85950000
H        0.25640000      -5.25020000       0.10070000
