19
Properties=species:S:1:pos:R:3 gdb_128791=T pbc="F F F"
C       -0.05620000       1.41230000       0.01560000
O       -0.02600000       0.00600000       0.01580000
C        0.62500000      -0.52780000      -1.11690000
C        0.60940000      -2.01930000      -1.03190000
C        0.06100000      -2.78970000      -0.03040000
N        0.28520000      -4.08010000      -0.37770000
N        0.94650000      -4.20690000      -1.54470000
C        1.14990000      -2.95530000      -1.95340000
C        1.86770000      -2.67740000      -3.23610000
H        0.95770000       1.84340000       0.01720000
H       -0.59500000       1.80990000      -0.85940000
H       -0.57550000       1.72880000       0.92330000
H        0.12520000      -0.18330000      -2.04120000
H        1.66260000      -0.14980000      -1.17350000
H       -0.45490000      -2.51110000       0.87320000
H        0.01970000      -4.90920000       0.12450000
H        1.23870000      -2.11650000      -3.93760000
H        2.77410000      -2.08290000      -3.07100000
H        2.15610000      -3.61750000      -3.71060000
