20
Properties=species:S:1:pos:R:3 gdb_12537=T pbc="F F F"
O       -0.02750000       1.43000000      -0.08360000
C        0.02090000       0.00680000      -0.00850000
C        0.85280000      -0.43950000       1.20000000
C        1.10780000      -1.95600000       1.29460000
C       -0.09230000      -2.78600000       1.68450000
C       -1.27400000      -2.79110000       1.06740000
C       -1.64850000      -1.96700000      -0.14170000
C       -1.43820000      -0.44930000       0.00490000
H        0.87590000       1.76020000      -0.04560000
H        0.49740000      -0.39930000      -0.92020000
H        1.82740000       0.06570000       1.13450000
H        0.37140000      -0.07990000       2.11680000
H        1.50490000      -2.30540000       0.32930000
H        1.90840000      -2.12730000       2.02100000
H        0.03810000      -3.43860000       2.54480000
H       -2.04870000      -3.44840000       1.45620000
H       -1.08640000      -2.31870000      -1.02020000
H       -2.70220000      -2.14530000      -0.37760000
H       -1.91300000      -0.09300000       0.92650000
H       -1.93550000       0.06270000      -0.82620000
