18
Properties=species:S:1:pos:R:3 gdb_127104=T pbc="F F F"
C        0.04580000       1.47270000      -0.06610000
N       -0.04400000       0.01660000       0.02360000
C        0.78690000      -0.52540000       1.09690000
C       -1.36960000      -0.48940000      -0.00100000
C       -2.44500000      -0.38290000       0.86650000
N       -3.45080000      -1.08550000       0.30060000
N       -3.12140000      -1.65700000      -0.89010000
C       -1.86400000      -1.29100000      -1.06240000
O       -1.15490000      -1.65900000      -2.14560000
H        1.08750000       1.76550000      -0.23680000
H       -0.55680000       1.82580000      -0.90600000
H       -0.30360000       1.98370000       0.84840000
H        0.49190000      -0.16120000       2.09680000
H        0.71960000      -1.61570000       1.09700000
H        1.83150000      -0.24050000       0.93060000
H       -2.56590000       0.12280000       1.81170000
H       -4.38040000      -1.22410000       0.65440000
H       -0.28090000      -1.25980000      -2.01700000
