21
Properties=species:S:1:pos:R:3 gdb_57346=T pbc="F F F"
C       -0.05630000       1.52520000      -0.08820000
C        0.01920000      -0.00910000       0.00850000
C        0.77480000      -0.40680000       1.29220000
C       -1.40990000      -0.57880000       0.05310000
C        0.74140000      -0.55480000      -1.29520000
C        2.17320000      -0.05690000      -1.38030000
O        2.51700000       0.90880000      -2.01200000
C        0.71890000      -2.07120000      -1.35550000
O       -0.03110000      -2.70880000      -2.04840000
H        0.93340000       1.98450000      -0.15030000
H       -0.62400000       1.83780000      -0.97020000
H       -0.56140000       1.92630000       0.79690000
H        0.23130000      -0.03390000       2.16630000
H        0.86290000      -1.49200000       1.40380000
H        1.78120000       0.02200000       1.32880000
H       -1.96130000      -0.33960000      -0.86150000
H       -1.41940000      -1.66600000       0.17040000
H       -1.95350000      -0.14550000       0.89920000
H        0.19200000      -0.17260000      -2.16020000
H        2.91670000      -0.64850000      -0.79920000
H        1.45820000      -2.58380000      -0.69820000
