17
Properties=species:S:1:pos:R:3 gdb_117123=T pbc="F F F"
O       -0.17770000       1.40680000       0.12220000
C        0.01250000       0.00440000       0.03160000
C       -1.37120000      -0.62990000       0.07880000
C       -1.34660000      -2.13070000      -0.03510000
O       -0.33470000      -2.77710000      -0.19210000
C       -2.69450000      -2.89980000       0.03350000
O       -2.47700000      -4.25800000      -0.23020000
C       -3.32320000      -2.67060000       1.34010000
C       -3.82820000      -2.48120000       2.41400000
H        0.68600000       1.82860000       0.09740000
H        0.51890000      -0.28120000      -0.90130000
H        0.62270000      -0.38040000       0.86130000
H       -1.88940000      -0.35380000       1.00420000
H       -1.99360000      -0.23000000      -0.73330000
H       -3.34780000      -2.47540000      -0.74660000
H       -1.50970000      -4.35890000      -0.23120000
H       -4.28460000      -2.32350000       3.36030000
