16
Properties=species:S:1:pos:R:3 gdb_128525=T pbc="F F F"
C        0.09410000       1.45280000       0.07030000
O       -0.06160000       0.03270000      -0.00970000
C        0.56700000      -0.53270000      -1.08500000
C        0.01380000      -0.93820000      -2.26640000
N       -1.26040000      -0.82320000      -2.77160000
O        0.94270000      -1.49720000      -3.04520000
N        2.19780000      -1.48230000      -2.36130000
C        1.93860000      -0.90080000      -1.21070000
N        2.92570000      -0.64360000      -0.27490000
H        1.15240000       1.72980000       0.14230000
H       -0.34320000       1.94690000      -0.80600000
H       -0.43110000       1.77490000       0.97230000
H       -1.96200000      -0.73410000      -2.04950000
H       -1.49510000      -1.53540000      -3.45000000
H        3.76670000      -1.18380000      -0.43090000
H        2.59640000      -0.72770000       0.67740000
