22
Properties=species:S:1:pos:R:3 gdb_8000=T pbc="F F F"
C       -0.12250000       1.58380000      -0.00380000
C        0.00810000       0.05660000       0.01620000
C        0.81640000      -0.52290000      -1.17270000
C        1.59340000      -1.74250000      -0.61710000
C        2.96510000      -1.94540000      -1.27150000
C        1.62190000      -1.46430000       0.88060000
C        2.47240000      -2.26050000       1.82130000
C        0.76110000      -0.49730000       1.20460000
H        0.86480000       2.05890000       0.01470000
H       -0.64370000       1.92350000      -0.90550000
H       -0.68590000       1.94700000       0.86260000
H       -1.01020000      -0.36440000       0.01170000
H        0.19100000      -0.77240000      -2.03500000
H        1.53990000       0.23180000      -1.50750000
H        1.00930000      -2.66260000      -0.78240000
H        3.60880000      -1.07300000      -1.11000000
H        3.48130000      -2.82420000      -0.87160000
H        2.86150000      -2.08790000      -2.35250000
H        3.54000000      -2.15160000       1.59410000
H        2.31590000      -1.95450000       2.85930000
H        2.24880000      -3.33330000       1.74720000
H        0.57170000      -0.15630000       2.21870000
