17
Properties=species:S:1:pos:R:3 gdb_12507=T pbc="F F F"
C        0.50030000       1.44570000       0.17070000
C       -0.04610000       0.06810000      -0.07580000
C        0.02590000      -0.56310000      -1.24820000
C       -0.51110000      -1.96010000      -1.47900000
N       -0.08270000      -3.00730000      -0.55430000
C        0.13560000      -2.85890000       0.67810000
O        0.00800000      -1.80800000       1.52930000
C       -0.70420000      -0.64040000       1.08680000
H        1.27030000       1.43020000       0.95290000
H        0.94160000       1.87060000      -0.73440000
H       -0.28450000       2.12940000       0.51980000
H        0.49970000      -0.07200000      -2.09580000
H       -1.61270000      -1.94330000      -1.50850000
H       -0.20760000      -2.29230000      -2.47690000
H        0.50980000      -3.70780000       1.25210000
H       -0.74660000      -0.00110000       1.97120000
H       -1.73250000      -0.93260000       0.83490000
