14
Properties=species:S:1:pos:R:3 gdb_25132=T pbc="F F F"
N       -0.01060000       1.34090000       0.01080000
C       -0.01380000       0.07070000       0.00330000
O        1.19640000      -0.63750000      -0.00710000
C        1.21570000      -1.98670000      -0.01500000
C        0.11210000      -2.74810000      -0.01390000
C       -1.18040000      -2.08780000      -0.00350000
C       -1.21970000      -0.72870000       0.00470000
C       -2.36670000      -2.87160000      -0.00200000
C       -3.35460000      -3.55990000      -0.00110000
H        0.94400000       1.70090000       0.00810000
H        2.22930000      -2.36880000      -0.02240000
H        0.18650000      -3.82590000      -0.02050000
H       -2.15230000      -0.18130000       0.01260000
H       -4.23230000      -4.15770000      -0.00010000
