9
Properties=species:S:1:pos:R:3 gdb_23836=T pbc="F F F"
F        0.02940000       0.10550000       0.16940000
C       -0.03490000       1.40440000       0.05260000
N       -1.16320000       1.98510000      -0.00800000
C       -1.10470000       3.36090000      -0.13050000
N       -0.06110000       4.11100000      -0.18940000
O        1.16770000       3.45240000      -0.12100000
C        1.28160000       2.08990000       0.00150000
O        2.35260000       1.56420000       0.05710000
H       -2.05050000       3.88800000      -0.18490000
