16
Properties=species:S:1:pos:R:3 gdb_125855=T pbc="F F F"
C       -0.08650000       1.58120000       0.03180000
C        0.01390000       0.04540000       0.01800000
C        0.81580000      -0.52230000      -1.15580000
C        1.85210000      -1.27990000      -0.74330000
C        1.85250000      -1.30070000       0.72150000
C        0.80220000      -0.54450000       1.14700000
O        0.72420000      -0.49540000       2.47120000
N        1.78910000      -1.27330000       2.98440000
C        2.43960000      -1.73620000       1.93510000
H        0.90900000       2.03300000       0.03880000
H       -0.61970000       1.93600000      -0.85470000
H       -0.62780000       1.92420000       0.91780000
H       -1.00220000      -0.37440000       0.00480000
H        0.54930000      -0.31050000      -2.18340000
H        2.56230000      -1.78800000      -1.38180000
H        3.30140000      -2.36420000       2.11310000
