17
Properties=species:S:1:pos:R:3 gdb_80954=T pbc="F F F"
C       -0.06800000       1.56780000      -0.05140000
C        0.09010000       0.06490000       0.03650000
N        1.30140000      -0.60380000      -0.68220000
C        2.14110000      -0.15510000       0.52630000
C        0.83040000      -0.65280000       1.18350000
O        0.41890000      -0.65880000       2.49400000
C        0.98150000      -1.84580000       0.17110000
C       -0.16950000      -2.64300000      -0.21940000
N       -1.07250000      -3.30900000      -0.49870000
H       -0.24430000       1.85860000      -1.09170000
H       -0.94400000       1.86760000       0.53230000
H        0.78680000       2.13550000       0.32060000
H       -0.84190000      -0.41570000      -0.27250000
H        3.04790000      -0.74970000       0.66480000
H        2.36480000       0.90900000       0.53770000
H        1.07300000      -1.11330000       3.03720000
H        1.85380000      -2.49130000       0.30010000
