19
Properties=species:S:1:pos:R:3 gdb_98788=T pbc="F F F"
C       -0.02160000       1.41440000       0.00600000
N       -0.02550000      -0.03620000      -0.04490000
C        0.60870000      -0.68160000      -1.09110000
O        1.02640000      -0.09640000      -2.08010000
N        0.71470000      -2.04430000      -0.95470000
C        0.04140000      -2.86570000       0.04800000
C        0.23670000      -4.25760000      -0.49190000
C        0.90230000      -4.23970000      -1.64250000
C        1.25620000      -2.84000000      -2.05780000
H        0.85620000       1.82120000       0.52660000
H       -0.00780000       1.78380000      -1.01930000
H       -0.92480000       1.77210000       0.50920000
H       -0.08010000      -0.51800000       0.83740000
H        0.49020000      -2.75390000       1.05030000
H       -1.02380000      -2.60160000       0.14570000
H       -0.13560000      -5.13200000       0.02630000
H        1.17380000      -5.10300000      -2.23650000
H        0.80600000      -2.54680000      -3.01570000
H        2.33970000      -2.69210000      -2.16890000
