21
Properties=species:S:1:pos:R:3 gdb_117590=T pbc="F F F"
C       -0.03580000       1.62590000      -0.04980000
C        0.02060000       0.09710000       0.03290000
C        0.71600000      -0.51730000      -1.18560000
C        0.72850000      -2.08120000      -1.23760000
C        1.48710000      -2.68140000      -0.02220000
C       -0.64940000      -2.59770000      -1.25780000
C       -1.77690000      -3.01330000      -1.25100000
C        1.41460000      -2.49020000      -2.47360000
C        2.00640000      -2.80040000      -3.47210000
H        0.96880000       2.05980000      -0.10720000
H       -0.58830000       1.95460000      -0.93680000
H       -0.53170000       2.05080000       0.82820000
H        0.54300000      -0.19400000       0.95160000
H       -0.99510000      -0.30690000       0.11060000
H        0.23150000      -0.16090000      -2.10090000
H        1.75960000      -0.18430000      -1.23280000
H        0.96790000      -2.44460000       0.90860000
H        1.55000000      -3.76720000      -0.11660000
H        2.50130000      -2.27430000       0.01810000
H       -2.77080000      -3.38740000      -1.25930000
H        2.51590000      -3.08350000      -4.35980000
