18
Properties=species:S:1:pos:R:3 gdb_18672=T pbc="F F F"
O        0.02880000      -0.01980000      -0.28140000
C        0.00970000       1.17550000      -0.07890000
C       -1.29140000       1.95110000       0.08880000
C       -1.28430000       3.18720000      -0.82980000
C       -0.16820000       4.17140000      -0.44690000
C        1.18890000       3.49930000      -0.21910000
C        1.52530000       2.92530000       1.11950000
C        1.26220000       1.98220000      -0.04950000
H       -2.11460000       1.27040000      -0.13940000
H       -1.40370000       2.26820000       1.13460000
H       -1.14080000       2.85400000      -1.86530000
H       -2.25660000       3.69010000      -0.79520000
H       -0.06690000       4.92560000      -1.23380000
H       -0.46140000       4.71540000       0.45970000
H        2.01870000       3.92960000      -0.77050000
H        2.54700000       2.97660000       1.47820000
H        0.77560000       2.98370000       1.90210000
H        2.12170000       1.45520000      -0.44790000
