15
Properties=species:S:1:pos:R:3 gdb_56375=T pbc="F F F"
N       -0.19250000       1.53780000       0.12520000
C        0.03020000       0.09060000       0.00640000
C        0.85060000      -0.35200000       1.15790000
N        1.53990000      -0.70360000       2.01480000
C       -1.28810000      -0.57870000       0.09190000
N       -2.32190000      -1.09170000       0.10310000
C        0.70820000      -0.33420000      -1.31520000
C        2.18550000      -0.30890000      -1.45200000
N        1.44580000      -1.58320000      -1.46870000
H        0.68040000       2.02080000      -0.06920000
H       -0.87050000       1.83180000      -0.57200000
H        0.08520000      -0.07190000      -2.16800000
H        2.62740000      -0.01970000      -2.40050000
H        2.77970000      -0.06990000      -0.57420000
H        1.55160000      -2.05980000      -0.57470000
