21
Properties=species:S:1:pos:R:3 gdb_111462=T pbc="F F F"
C       -0.07300000       1.53040000       0.19480000
C       -0.13550000       0.01060000       0.01000000
C        0.58520000      -0.49490000      -1.25090000
C        0.83370000      -1.99320000      -1.32490000
C       -0.34750000      -2.88930000      -1.61200000
C        0.57110000      -2.48480000      -2.73790000
C        0.12770000      -1.30630000      -3.58100000
C       -0.14380000      -0.17910000      -2.57280000
O       -0.83640000       0.78400000      -2.78470000
H        0.96550000       1.87320000       0.27360000
H       -0.53620000       2.04270000      -0.65030000
H       -0.59070000       1.83200000       1.11080000
H        0.31430000      -0.48500000       0.87910000
H       -1.18150000      -0.31690000      -0.02100000
H        1.55990000       0.01580000      -1.32060000
H        1.65320000      -2.40240000      -0.74480000
H       -0.29200000      -3.91400000      -1.26250000
H       -1.34940000      -2.46910000      -1.58210000
H        1.20640000      -3.23990000      -3.18550000
H        0.92990000      -0.97280000      -4.25320000
H       -0.75820000      -1.47990000      -4.19900000
