18
Properties=species:S:1:pos:R:3 gdb_9968=T pbc="F F F"
C        0.16810000       1.09040000      -0.39020000
O       -0.11820000      -0.13030000       0.28850000
C       -1.42290000      -0.61010000       0.12270000
C       -2.47860000       0.04360000       0.98030000
C       -1.79410000      -1.19910000      -1.23960000
O       -0.88330000      -1.15470000      -2.28900000
C       -1.43140000      -2.11090000      -0.08100000
O       -0.18640000      -2.73580000      -0.21490000
H        1.22170000       1.30920000      -0.20180000
H       -0.00290000       0.98780000      -1.46540000
H       -0.43600000       1.91750000       0.00440000
H       -2.61480000       1.09800000       0.71630000
H       -3.44390000      -0.45450000       0.84820000
H       -2.20630000      -0.01520000       2.03940000
H       -2.83030000      -1.12010000      -1.56000000
H       -0.25210000      -1.86970000      -2.11010000
H       -2.17760000      -2.72730000       0.41220000
H        0.46220000      -2.10020000       0.12450000
