23
Properties=species:S:1:pos:R:3 gdb_79877=T pbc="F F F"
C       -0.34640000       1.52280000      -0.07280000
C        0.05060000       0.05970000       0.05510000
C        1.30940000      -0.66990000      -0.34430000
C        2.65370000      -0.07610000       0.13160000
C        2.91460000       1.46020000       0.21650000
C        2.39510000       1.45620000       1.69640000
C        2.14010000      -0.07900000       1.59260000
C        0.79150000      -0.69610000       1.12600000
C        0.14220000      -1.81020000       1.90310000
H        0.43190000       2.23270000       0.18990000
H       -0.64790000       1.73200000      -1.10580000
H       -1.21260000       1.72890000       0.56690000
H       -0.79610000      -0.55870000      -0.25240000
H        1.25720000      -1.45950000      -1.08820000
H        3.50670000      -0.69440000      -0.15130000
H        3.97680000       1.70880000       0.14520000
H        2.37960000       2.08640000      -0.49930000
H        3.18140000       1.69740000       2.41670000
H        1.53310000       2.08430000       1.92690000
H        2.63030000      -0.69890000       2.34560000
H       -0.35190000      -1.42970000       2.80670000
H       -0.61850000      -2.32250000       1.30440000
H        0.87660000      -2.55900000       2.22330000
