17
Properties=species:S:1:pos:R:3 gdb_50876=T pbc="F F F"
N       -0.09270000       1.49380000       0.04550000
C       -0.03960000       0.22850000       0.05460000
C       -1.28500000      -0.62510000       0.16400000
C       -2.57370000       0.20580000       0.26220000
C       -3.75890000      -0.63630000       0.36620000
C       -4.72150000      -1.35120000       0.45120000
N        1.13880000      -0.55420000      -0.03250000
C        2.42800000      -0.09520000      -0.14170000
O        2.76500000       1.06630000      -0.18110000
H        0.83920000       1.90090000      -0.03430000
H       -1.34020000      -1.29420000      -0.70480000
H       -1.19730000      -1.27910000       1.04150000
H       -2.50400000       0.87690000       1.12440000
H       -2.64580000       0.86220000      -0.61100000
H       -5.58430000      -1.96520000       0.52740000
H        1.02440000      -1.55700000      -0.01240000
H        3.15160000      -0.93150000      -0.19100000
