13
Properties=species:S:1:pos:R:3 gdb_123975=T pbc="F F F"
C        0.01720000       1.48810000      -0.06000000
N        1.35300000       2.06690000       0.10810000
C        2.37420000       1.33200000       0.27380000
N        2.42120000      -0.06070000       0.32450000
C        1.23680000      -0.73420000       0.18020000
N        1.00920000      -2.01580000       0.18860000
O       -0.36100000      -2.11130000       0.00020000
N       -0.94250000      -0.87340000      -0.11990000
C        0.02490000      -0.01310000      -0.01180000
H       -0.63730000       1.89890000       0.71880000
H       -0.39610000       1.84450000      -1.01170000
H        3.35090000       1.79760000       0.39540000
H        3.28950000      -0.55090000       0.46080000
