16
Properties=species:S:1:pos:R:3 gdb_35116=T pbc="F F F"
N        0.28100000      -1.14690000       0.40790000
C        0.13920000      -0.01740000       0.21130000
C       -0.05660000       1.41690000      -0.05180000
C       -0.94290000       2.04850000       1.00320000
C       -0.71160000       3.23890000       1.54660000
C        0.45920000       4.12060000       1.21820000
C        1.52200000       3.43320000       0.39400000
O        2.08710000       2.24230000       0.95300000
C        1.28890000       2.11700000      -0.21600000
H       -0.56810000       1.47990000      -1.02520000
H       -1.81420000       1.46980000       1.29230000
H       -1.41390000       3.62480000       2.28060000
H        0.11380000       5.01150000       0.67400000
H        0.91320000       4.50040000       2.14330000
H        2.25410000       4.09050000      -0.07540000
H        1.83780000       1.83580000      -1.11430000
