22
Properties=species:S:1:pos:R:3 gdb_113943=T pbc="F F F"
C       -0.37290000      -2.86420000       0.03260000
C       -0.51280000      -1.42120000      -0.46740000
C        0.18720000      -1.22150000      -1.79760000
C       -0.53610000      -1.39600000      -3.09130000
N       -0.05580000      -0.08010000      -2.67950000
C       -1.04010000       0.93150000      -2.31830000
C       -1.30560000       1.81880000      -3.51400000
C       -2.47630000       1.62680000      -4.37790000
O       -2.43850000       2.68150000      -3.41380000
H       -0.83200000      -3.56950000      -0.66770000
H        0.68070000      -3.14380000       0.14110000
H       -0.85350000      -2.99310000       1.00690000
H       -1.57370000      -1.16440000      -0.55060000
H       -0.08340000      -0.73490000       0.27440000
H        1.23990000      -1.50660000      -1.77410000
H       -0.05030000      -1.83670000      -3.95800000
H       -1.60830000      -1.58490000      -3.02940000
H       -2.00200000       0.52840000      -1.96330000
H       -0.62400000       1.54270000      -1.50760000
H       -0.41730000       2.27840000      -3.94750000
H       -2.44220000       1.94320000      -5.41930000
H       -3.17830000       0.82220000      -4.16010000
