13
Properties=species:S:1:pos:R:3 gdb_42617=T pbc="F F F"
O        0.06190000       0.06530000      -0.13970000
C       -0.00960000       1.24150000       0.04840000
C       -1.13360000       2.21480000       0.11750000
C       -0.70540000       3.43510000       0.93070000
O        0.25930000       3.30680000       1.95500000
C        1.40800000       2.77460000       1.40680000
O        2.41260000       2.62320000       2.02820000
C        1.07130000       2.38450000      -0.02390000
C       -0.11940000       3.29570000      -0.41160000
H       -2.16990000       2.03860000      -0.14050000
H       -1.47300000       4.15820000       1.17040000
H        1.92410000       2.21940000      -0.67400000
H       -0.20930000       3.94130000      -1.27230000
