21
Properties=species:S:1:pos:R:3 gdb_58040=T pbc="F F F"
C        0.03500000       1.53520000       0.29420000
C       -0.01360000       0.06140000      -0.08150000
O        0.81300000      -0.64340000       0.82760000
C       -1.48390000      -0.48760000      -0.06660000
C       -2.16290000      -0.09490000      -1.29760000
C       -2.67040000       0.19770000      -2.34940000
C       -1.50270000      -2.02800000       0.12820000
C       -2.89790000      -2.64070000       0.07180000
O       -0.60650000      -2.66010000      -0.78700000
H        1.05590000       1.91530000       0.20540000
H       -0.61840000       2.12130000      -0.35780000
H       -0.29010000       1.67030000       1.33120000
H        0.36490000      -0.06420000      -1.10480000
H        0.95780000      -1.51540000       0.43990000
H       -2.00860000      -0.04860000       0.79300000
H       -3.13770000       0.48000000      -3.26050000
H       -1.06520000      -2.21650000       1.11200000
H       -3.54560000      -2.20900000       0.84210000
H       -3.36850000      -2.46270000      -0.90030000
H       -2.83370000      -3.71940000       0.23760000
H       -0.92010000      -2.46590000      -1.67900000
