17
Properties=species:S:1:pos:R:3 gdb_9706=T pbc="F F F"
C       -0.06620000       1.53560000      -0.01090000
C        0.00190000      -0.00490000       0.00270000
C        0.80530000      -0.58850000      -1.20890000
C        1.62490000      -1.77440000      -0.64730000
C        1.64600000      -1.50170000       0.83640000
C        0.77450000      -0.56360000       1.19440000
C       -1.37180000      -0.54070000       0.02200000
N       -2.44990000      -0.95910000       0.03950000
H        0.94780000       1.94410000       0.01840000
H       -0.56440000       1.89620000      -0.91540000
H       -0.61840000       1.91350000       0.85410000
H        0.15500000      -0.86560000      -2.04040000
H        1.48270000       0.19350000      -1.56450000
H        1.14400000      -2.74000000      -0.85260000
H        2.62690000      -1.82900000      -1.08590000
H        2.28420000      -2.04690000       1.52300000
H        0.57070000      -0.22480000       2.20340000
