17
Properties=species:S:1:pos:R:3 gdb_70652=T pbc="F F F"
N        0.34700000       1.31100000      -0.26800000
C        0.00560000      -0.06490000      -0.04590000
C       -0.65940000      -0.97440000      -1.07770000
C       -1.38930000      -0.56040000       0.18180000
O       -1.44590000      -1.44720000       1.26650000
C       -0.12970000      -1.91990000       1.51350000
C        0.82810000      -0.79050000       1.02920000
C        2.11580000      -1.30030000       0.57000000
N        3.13030000      -1.70940000       0.19620000
H        1.06040000       1.39630000      -0.98670000
H       -0.45710000       1.84240000      -0.58300000
H       -0.97750000      -0.49550000      -1.99790000
H       -0.32820000      -2.00040000      -1.19830000
H       -2.26360000       0.07920000       0.13310000
H       -0.03250000      -2.12670000       2.58120000
H        0.06680000      -2.84780000       0.96190000
H        1.00640000      -0.06470000       1.82910000
