16
Properties=species:S:1:pos:R:3 gdb_78947=T pbc="F F F"
O        0.21360000       1.35340000      -0.13630000
C        0.10030000      -0.04840000      -0.07680000
C        0.22330000      -0.63520000       1.34790000
C       -0.11740000      -2.12110000       1.30760000
C       -1.51970000      -1.85790000       1.80180000
N       -1.29000000      -0.36760000       1.58120000
C       -1.34820000      -0.57090000       0.04350000
C       -1.30850000      -2.07530000       0.32920000
O       -1.57270000      -3.14750000      -0.48750000
H       -0.34870000       1.71740000       0.55880000
H        0.73390000      -0.46080000      -0.86550000
H        0.93900000      -0.24010000       2.06980000
H        0.49860000      -3.00540000       1.40190000
H       -2.14130000      -2.30650000       2.56580000
H       -2.17710000      -0.12560000      -0.50910000
H       -2.52440000      -3.19410000      -0.63220000
