20
Properties=species:S:1:pos:R:3 gdb_100560=T pbc="F F F"
C       -0.16220000       1.30650000       0.16530000
O       -0.05920000      -0.09030000       0.00510000
C        0.62550000      -0.49730000      -1.15070000
C        2.15490000      -0.37460000      -1.00950000
C        0.24290000      -1.94960000      -1.44530000
O       -0.39280000      -2.63320000      -0.67550000
C        0.70970000      -2.50380000      -2.75970000
C        1.38570000      -3.84190000      -2.71390000
N        0.03540000      -3.71770000      -3.24150000
H        0.81160000       1.78880000       0.33400000
H       -0.63700000       1.78160000      -0.70760000
H       -0.78950000       1.47830000       1.04290000
H        0.30030000       0.10260000      -2.02060000
H        2.49300000      -0.95680000      -0.14770000
H        2.66820000      -0.73940000      -1.90340000
H        2.44580000       0.66830000      -0.86050000
H        0.99810000      -1.79340000      -3.52890000
H        2.15790000      -4.06340000      -3.44510000
H        1.52240000      -4.28580000      -1.73160000
H       -0.62210000      -3.98880000      -2.50810000
