13
Properties=species:S:1:pos:R:3 gdb_45606=T pbc="F F F"
N       -0.07500000       1.29830000       0.01200000
C        0.01200000       0.03580000       0.00390000
N        1.13220000      -0.79710000      -0.00800000
C        0.75050000      -2.12290000      -0.01350000
C       -0.60130000      -2.28820000      -0.00610000
C       -1.31650000      -3.50070000      -0.00880000
C       -1.95620000      -4.52120000      -0.01090000
C       -1.19730000      -0.92940000       0.00540000
O       -2.35210000      -0.59230000       0.01460000
H        0.84300000       1.75040000       0.00910000
H        2.08600000      -0.47940000      -0.01190000
H        1.50670000      -2.89570000      -0.02260000
H       -2.52220000      -5.41930000      -0.01270000
