18
Properties=species:S:1:pos:R:3 gdb_22335=T pbc="F F F"
C       -0.29720000       1.45200000       0.02480000
C        0.11300000      -0.01710000       0.07000000
C        0.80620000      -0.53380000      -1.20510000
C        1.59060000      -1.77170000      -0.76370000
O        1.99160000      -2.65600000      -1.47710000
C        1.74970000      -1.65570000       0.73660000
C        1.12670000      -0.35750000       1.18990000
N        2.26860000      -2.46910000       1.57710000
O        2.78660000      -3.61470000       1.00750000
H        0.57370000       2.09640000      -0.14320000
H       -1.01240000       1.64010000      -0.78240000
H       -0.76540000       1.76150000       0.96530000
H       -0.78340000      -0.62940000       0.23600000
H        0.13670000      -0.76610000      -2.03630000
H        1.53370000       0.20690000      -1.56930000
H        1.89510000       0.42800000       1.23640000
H        0.67730000      -0.43060000       2.18260000
H        3.10910000      -4.09740000       1.77780000
