17
Properties=species:S:1:pos:R:3 gdb_30434=T pbc="F F F"
C       -0.05650000       1.40490000       0.03920000
N       -0.00630000      -0.04410000      -0.00620000
C       -1.09480000      -0.68630000       0.02190000
O       -2.37780000      -0.13210000       0.06580000
C       -3.28110000      -1.17070000       0.02180000
O       -4.57970000      -0.85090000       0.09870000
C       -2.64600000      -2.34380000      -0.03120000
N       -1.26690000      -2.04980000       0.01140000
C       -0.18280000      -2.99010000      -0.13720000
H        0.94780000       1.80140000      -0.13320000
H       -0.72410000       1.83450000      -0.72230000
H       -0.39790000       1.78070000       1.01520000
H       -4.69130000       0.04770000      -0.23510000
H       -3.02630000      -3.34790000      -0.06590000
H       -0.28240000      -3.80830000       0.58360000
H       -0.14480000      -3.41370000      -1.14930000
H        0.74560000      -2.45080000       0.05360000
