25
Properties=species:S:1:pos:R:3 gdb_85902=T pbc="F F F"
C        0.00910000       1.60060000       0.01580000
C        0.04250000       0.07050000       0.03010000
C        0.77280000      -0.55300000      -1.18450000
C        1.27180000      -1.95520000      -0.73370000
C        0.16700000      -3.00880000      -0.93700000
C        2.53830000      -2.38560000      -1.48590000
C        1.50470000      -1.76890000       0.77040000
C        2.25850000      -0.54660000       1.23410000
C        0.74780000      -0.54710000       1.23510000
H        1.02330000       2.01460000       0.03890000
H       -0.48750000       1.97910000      -0.88440000
H       -0.53060000       1.99460000       0.88370000
H       -0.99480000      -0.29140000       0.03850000
H        0.13040000      -0.61180000      -2.06880000
H        1.62630000       0.07580000      -1.46450000
H       -0.05880000      -3.13940000      -2.00120000
H        0.47660000      -3.98250000      -0.54080000
H       -0.75860000      -2.72310000      -0.42730000
H        3.35680000      -1.67750000      -1.32180000
H        2.87870000      -3.37250000      -1.15240000
H        2.35630000      -2.44650000      -2.56510000
H        1.55900000      -2.66330000       1.38390000
H        2.75310000      -0.60880000       2.19740000
H        2.79350000       0.06000000       0.51030000
H        0.23810000      -0.52870000       2.19310000
