23
Properties=species:S:1:pos:R:3 gdb_103778=T pbc="F F F"
C        0.17080000       1.14890000      -0.13050000
O       -0.08400000      -0.15210000       0.35860000
C       -1.39340000      -0.61560000       0.15720000
C       -2.43690000       0.02480000       1.04600000
C       -1.75660000      -1.05470000      -1.24730000
C       -1.46440000      -2.07760000      -0.17770000
C       -0.27060000      -3.03870000      -0.10570000
C       -1.13240000      -3.97460000       0.79350000
C       -2.39380000      -3.12590000       0.45250000
H        1.24110000       1.33060000      -0.00480000
H       -0.08480000       1.23970000      -1.19580000
H       -0.38080000       1.92060000       0.42480000
H       -2.54280000       1.09460000       0.83600000
H       -3.41630000      -0.43550000       0.89240000
H       -2.16490000      -0.08850000       2.10100000
H       -2.78220000      -0.92560000      -1.58170000
H       -1.00700000      -0.92440000      -2.02230000
H       -0.02300000      -3.48520000      -1.07390000
H        0.63990000      -2.62830000       0.33460000
H       -1.16700000      -5.02840000       0.50940000
H       -0.85780000      -3.91080000       1.84930000
H       -3.00930000      -2.80280000       1.29660000
H       -3.04570000      -3.60850000      -0.28290000
