22
Properties=species:S:1:pos:R:3 gdb_104151=T pbc="F F F"
C        0.01110000       1.56300000       0.09780000
C       -0.04480000       0.04650000      -0.10400000
C        0.77330000      -0.48600000      -1.29930000
C        2.26370000      -0.13840000      -1.18020000
C        0.55700000      -2.02150000      -1.48010000
O        0.01710000      -2.16130000      -2.80930000
C       -0.12290000      -0.89270000      -3.28970000
C       -0.70820000      -0.80720000      -4.65820000
N        0.24490000       0.07920000      -2.56060000
H        1.01230000       1.90000000       0.38280000
H       -0.27210000       2.08200000      -0.82150000
H       -0.67580000       1.86930000       0.89280000
H        0.29940000      -0.46630000       0.80470000
H       -1.08760000      -0.25850000      -0.25540000
H        2.67930000      -0.51660000      -0.23920000
H        2.82600000      -0.58340000      -2.00690000
H        2.41590000       0.94230000      -1.21860000
H        1.48400000      -2.59940000      -1.42240000
H       -0.16510000      -2.43800000      -0.77000000
H       -0.08380000      -1.35430000      -5.37160000
H       -1.70070000      -1.26840000      -4.67590000
H       -0.78280000       0.23630000      -4.96170000
