19
Properties=species:S:1:pos:R:3 gdb_117383=T pbc="F F F"
C       -0.45130000       0.60020000      -1.08690000
O        0.88110000       0.15450000      -1.24350000
C        1.32410000      -0.66570000      -0.18790000
C        0.88790000      -2.13270000      -0.29290000
O        0.76270000      -2.80950000       0.70010000
C        0.66600000      -2.68490000      -1.69880000
C        0.83310000      -4.18290000      -1.76300000
C        1.15340000      -4.86470000      -3.02140000
O        2.15710000      -4.65490000      -2.02690000
H       -1.17130000      -0.23190000      -1.05930000
H       -0.57120000       1.18810000      -0.16510000
H       -0.68070000       1.23390000      -1.94630000
H        2.42180000      -0.66340000      -0.22700000
H        1.02330000      -0.28350000       0.79750000
H       -0.35660000      -2.40830000      -1.99490000
H        1.33120000      -2.18700000      -2.41000000
H        0.31150000      -4.73740000      -0.98520000
H        0.84770000      -5.89950000      -3.17000000
H        1.27180000      -4.28240000      -3.93490000
