19
Properties=species:S:1:pos:R:3 gdb_96404=T pbc="F F F"
C       -0.04240000       1.52150000      -0.10130000
C        0.04870000       0.01000000      -0.00210000
O        0.66040000      -0.47090000      -1.19310000
C        0.73080000      -1.87080000      -1.22000000
O        1.49200000      -2.40010000      -0.16680000
C        0.94250000      -2.04870000       1.08830000
C        0.83440000      -0.51240000       1.23350000
C        2.14720000       0.10680000       1.37800000
C        3.22920000       0.61080000       1.51880000
H        0.95630000       1.95840000      -0.17190000
H       -0.61350000       1.80210000      -0.99010000
H       -0.54240000       1.93250000       0.78110000
H       -0.96730000      -0.41830000       0.07220000
H       -0.29200000      -2.29610000      -1.18920000
H        1.23090000      -2.15060000      -2.14880000
H       -0.06450000      -2.48560000       1.20110000
H        1.59630000      -2.47340000       1.85240000
H        0.23630000      -0.29680000       2.12950000
H        4.18740000       1.05320000       1.63520000
