16
Properties=species:S:1:pos:R:3 gdb_50273=T pbc="F F F"
O       -0.83820000       1.04910000      -0.53790000
C        0.11650000       0.91980000       0.18760000
C        1.34300000       1.79200000       0.14360000
C        1.39010000       3.00130000      -0.81230000
N        1.58180000       3.98180000       0.31850000
C        0.39010000       3.85150000       1.16150000
C        1.44420000       2.81210000       1.30770000
C        2.24530000       2.63750000       2.47050000
C        2.91460000       2.44450000       3.45160000
H        0.13160000       0.14380000       0.98610000
H        2.23940000       1.16750000       0.10090000
H        2.26200000       3.01240000      -1.46640000
H        0.48310000       3.17460000      -1.39670000
H        0.34070000       4.59790000       1.94730000
H       -0.56290000       3.59110000       0.70490000
H        3.50800000       2.28930000       4.31870000
