21
Properties=species:S:1:pos:R:3 gdb_89383=T pbc="F F F"
C        0.74480000       1.46370000       0.05900000
C       -0.02960000       0.14020000       0.01460000
C        0.30570000      -0.73690000      -1.23410000
C        1.15340000      -1.88880000      -0.72380000
O        1.05600000      -3.13410000      -1.35970000
C        2.40740000      -1.57690000       0.06990000
C        1.10260000      -1.91080000       0.77700000
O        1.00080000      -3.12120000       1.45660000
C        0.22360000      -0.77300000       1.25710000
H        1.82870000       1.31390000       0.09440000
H        0.52620000       2.07330000      -0.82430000
H        0.46660000       2.04620000       0.94380000
H       -1.09270000       0.39770000      -0.01710000
H       -0.60500000      -1.16490000      -1.66630000
H        0.79470000      -0.15060000      -2.02150000
H        1.75790000      -3.20570000      -2.01440000
H        3.14630000      -2.37100000       0.10810000
H        2.81550000      -0.57210000       0.07440000
H        0.93720000      -3.80600000       0.77620000
H        0.66120000      -0.21250000       2.09030000
H       -0.71200000      -1.21200000       1.61820000
