21
Properties=species:S:1:pos:R:3 gdb_65268=T pbc="F F F"
C       -0.12510000       1.46770000      -0.48190000
C       -0.00870000      -0.00800000      -0.17840000
C        1.26660000      -0.70440000      -0.39770000
O        0.84190000      -0.35660000       0.92450000
C       -1.29040000      -0.82730000      -0.20810000
C       -2.36680000      -0.38640000       0.82280000
C       -3.49930000       0.18300000      -0.05080000
C       -3.29410000      -0.58310000      -1.35890000
O       -1.88390000      -0.69430000      -1.50280000
H        0.85440000       1.94780000      -0.42270000
H       -0.53540000       1.61190000      -1.48460000
H       -0.78760000       1.96780000       0.23290000
H        1.27210000      -1.77010000      -0.62260000
H        2.12470000      -0.14800000      -0.77230000
H       -1.01730000      -1.87710000      -0.03230000
H       -2.71490000      -1.25530000       1.38780000
H       -1.97500000       0.33250000       1.54520000
H       -4.49170000       0.03430000       0.38180000
H       -3.35990000       1.25490000      -0.22220000
H       -3.75940000      -1.58130000      -1.30540000
H       -3.68170000      -0.07210000      -2.24460000
