23
Properties=species:S:1:pos:R:3 gdb_100773=T pbc="F F F"
C       -0.15050000       1.54560000       0.01320000
C        0.01590000       0.01910000      -0.01210000
C       -1.34830000      -0.65280000      -0.20590000
O       -2.19320000      -0.26090000       0.86820000
C        1.03770000      -0.45020000      -1.07700000
C        2.41630000       0.20990000      -0.90700000
C        1.21630000      -1.95830000      -1.05630000
C        0.59390000      -2.86310000      -2.03190000
O        1.97560000      -2.51990000      -2.13130000
H        0.76020000       2.05080000       0.34280000
H       -0.40540000       1.92680000      -0.98360000
H       -0.95750000       1.81890000       0.69550000
H        0.38350000      -0.30070000       0.97430000
H       -1.77220000      -0.34530000      -1.17750000
H       -1.23570000      -1.74560000      -0.22730000
H       -3.05650000      -0.66150000       0.73360000
H        0.65250000      -0.18080000      -2.07110000
H        2.37210000       1.28920000      -1.06860000
H        2.81390000       0.03560000       0.10000000
H        3.12120000      -0.21290000      -1.62750000
H        1.47440000      -2.37550000      -0.07920000
H        0.38500000      -3.89840000      -1.76420000
H       -0.04590000      -2.44980000      -2.81130000
