14
Properties=species:S:1:pos:R:3 gdb_17715=T pbc="F F F"
O        0.00510000       1.47180000      -0.04610000
C        0.05590000       0.07000000      -0.00290000
C        0.00800000      -0.63260000       1.37190000
C       -1.52220000      -0.27770000       1.56010000
C       -1.31790000      -0.60400000       0.02630000
C       -0.73140000      -1.88030000       0.74720000
C       -1.81080000      -1.75250000       1.81980000
O       -2.50220000      -2.44530000       2.50120000
H        0.90380000       1.81470000      -0.02760000
H        0.78030000      -0.33420000      -0.72400000
H        0.74670000      -0.67770000       2.17220000
H       -1.92990000       0.63690000       1.98000000
H       -2.10450000      -0.60960000      -0.72710000
H       -0.26680000      -2.74010000       0.26930000
