23
Properties=species:S:1:pos:R:3 gdb_106289=T pbc="F F F"
C       -0.21150000       1.52120000       0.00630000
C        0.08510000       0.01750000      -0.04940000
C        0.77180000      -0.51100000       1.19390000
C        0.11540000      -0.46580000       2.62300000
C        1.22570000      -1.53360000       2.93020000
C        1.18490000      -2.43790000       4.14070000
C        0.95900000      -2.04620000       1.46890000
C        2.48150000      -0.67800000       2.67130000
C        2.18970000      -0.01710000       1.55000000
H        0.70620000       2.10600000       0.12900000
H       -0.70280000       1.86120000      -0.91050000
H       -0.86960000       1.76230000       0.84770000
H       -0.85250000      -0.53210000      -0.20170000
H        0.71110000      -0.20250000      -0.92490000
H        0.16020000       0.47740000       3.17350000
H       -0.89890000      -0.88190000       2.64380000
H        0.23930000      -2.98740000       4.19510000
H        1.99650000      -3.17410000       4.11270000
H        1.29000000      -1.86350000       5.06830000
H        0.02680000      -2.61620000       1.37560000
H        1.77900000      -2.55500000       0.95520000
H        3.37310000      -0.66000000       3.28370000
H        2.77800000       0.69380000       0.98580000
