14
Properties=species:S:1:pos:R:3 gdb_132116=T pbc="F F F"
N        0.05030000       1.44700000       0.17020000
C        0.00720000       0.04770000       0.05330000
C       -1.14140000      -0.67530000       0.00240000
F       -2.35150000      -0.12540000      -0.02490000
N       -1.12920000      -2.03470000      -0.03790000
C        0.04530000      -2.79050000      -0.02040000
N       -0.03900000      -4.07200000      -0.05230000
C        1.22330000      -1.92420000       0.02630000
N        1.19650000      -0.62890000       0.05830000
H        0.93890000       1.79770000      -0.16460000
H       -0.71590000       1.91110000      -0.30020000
H       -2.00520000      -2.53750000      -0.07750000
H        0.89130000      -4.48450000      -0.03650000
H        2.19550000      -2.41250000       0.02940000
