23
Properties=species:S:1:pos:R:3 gdb_106373=T pbc="F F F"
C       -0.18020000       1.54960000       0.02640000
C        0.04710000       0.03490000       0.02430000
C        0.82970000      -0.48090000       1.20600000
C        2.15890000       0.12190000       1.73720000
C        1.57140000      -0.49040000       3.02130000
O        0.23510000      -0.17620000       2.52080000
C        1.65830000      -2.01810000       2.78820000
C        0.84500000      -2.83140000       3.79130000
C        1.07280000      -2.00430000       1.33640000
H        0.76220000       2.09670000      -0.07700000
H       -0.82810000       1.84600000      -0.80370000
H       -0.65140000       1.86440000       0.96120000
H       -0.92010000      -0.48450000       0.01530000
H        0.56880000      -0.27270000      -0.89130000
H        3.10800000      -0.25800000       1.34840000
H        2.14090000       1.21160000       1.75640000
H        1.77270000      -0.10090000       4.02020000
H        2.70260000      -2.34960000       2.79610000
H       -0.18140000      -2.45460000       3.83470000
H        0.80890000      -3.88880000       3.50920000
H        1.27530000      -2.76990000       4.79740000
H        0.13260000      -2.55830000       1.26370000
H        1.76290000      -2.39040000       0.58080000
