19
Properties=species:S:1:pos:R:3 gdb_111812=T pbc="F F F"
O       -0.05500000       1.35710000      -0.29780000
C        0.00110000       0.00680000       0.14890000
C       -1.39810000      -0.57210000       0.03190000
C       -2.06650000      -0.54870000      -1.35880000
C       -1.16700000      -1.50500000      -2.14950000
O       -0.80220000      -2.49440000      -1.15910000
C       -1.49160000      -2.10940000       0.04170000
C       -2.99310000      -2.30150000      -0.20320000
O       -3.30820000      -1.22970000      -1.11780000
H        0.82620000       1.73520000      -0.22440000
H        0.70930000      -0.58570000      -0.44570000
H        0.32820000      -0.04990000       1.19930000
H       -2.06320000      -0.10820000       0.76490000
H       -2.26810000       0.41730000      -1.81550000
H       -1.71770000      -1.97710000      -2.96940000
H       -0.26380000      -1.02690000      -2.54790000
H       -1.06790000      -2.66050000       0.88140000
H       -3.19690000      -3.27160000      -0.66940000
H       -3.59680000      -2.20350000       0.70840000
