17
Properties=species:S:1:pos:R:3 gdb_41790=T pbc="F F F"
C        0.09880000       1.58480000       0.10360000
O        1.43640000       1.87890000      -0.29690000
C        2.15720000       0.68420000      -0.05690000
O        1.29890000      -0.35020000      -0.46700000
C        0.00630000       0.02160000       0.02150000
C       -0.27840000      -0.64390000       1.34210000
C        0.60000000      -0.66300000       2.35610000
C        1.91070000      -0.01770000       2.39170000
C        2.58320000       0.57680000       1.39200000
H       -0.09570000       1.93570000       1.12280000
H       -0.58010000       2.08940000      -0.58850000
H        3.03020000       0.67770000      -0.71690000
H       -0.71850000      -0.29890000      -0.73090000
H       -1.23390000      -1.14860000       1.45240000
H        0.31410000      -1.17850000       3.26940000
H        2.38260000      -0.00740000       3.37200000
H        3.53710000       1.04710000       1.61650000
