16
Properties=species:S:1:pos:R:3 gdb_85122=T pbc="F F F"
C       -0.13800000       1.39870000      -0.03020000
C        0.02740000      -0.10630000       0.06810000
N        1.12190000      -0.68150000      -0.74470000
C        1.91700000      -1.04190000       0.29510000
O        3.04840000      -1.43120000       0.41340000
C        0.80570000      -0.63690000       1.32640000
O        1.21570000       0.29030000       2.29360000
C        0.14560000      -1.83320000       1.99580000
O       -0.63950000      -2.56770000       1.45570000
H        0.80150000       1.91490000       0.18050000
H       -0.47980000       1.68270000      -1.03080000
H       -0.88480000       1.74150000       0.69180000
H       -0.91610000      -0.63640000      -0.08400000
H        1.30100000      -0.67240000      -1.73870000
H        2.17950000       0.32690000       2.28450000
H        0.46770000      -1.96770000       3.05070000
