18
Properties=species:S:1:pos:R:3 gdb_105422=T pbc="F F F"
O       -0.37590000       1.51970000      -0.66110000
C       -0.09040000       0.19980000      -0.21650000
C       -1.42990000      -0.46410000       0.08160000
C       -2.24260000      -0.78240000      -1.19330000
O       -1.85710000      -2.16860000      -1.12920000
C       -1.34270000      -1.99850000       0.21190000
N       -2.15490000       0.23590000       1.12760000
C       -1.83400000       0.08550000       2.44100000
O       -1.04850000      -0.73530000       2.87080000
H        0.45550000       1.97990000      -0.80590000
H        0.43340000      -0.38310000      -0.98870000
H        0.52090000       0.19770000       0.69640000
H       -3.32550000      -0.64770000      -1.06660000
H       -1.91430000      -0.29370000      -2.11570000
H       -0.34360000      -2.42670000       0.33540000
H       -2.01420000      -2.41290000       0.96970000
H       -2.64070000       1.07890000       0.85960000
H       -2.39670000       0.78350000       3.09170000
