18
Properties=species:S:1:pos:R:3 gdb_83115=T pbc="F F F"
C        0.04090000       1.54300000       0.03230000
C        0.03580000       0.04110000       0.11640000
O       -1.20370000      -0.48320000      -0.32530000
C       -1.78010000      -1.48080000       0.41230000
N       -1.30740000      -2.15720000       1.36100000
C        0.06070000      -1.92070000       1.80680000
C        0.76120000      -0.71680000       1.19870000
C        1.24500000      -0.78710000      -0.24160000
O        1.06670000      -1.98890000      -0.92260000
H        1.03300000       1.93410000       0.27400000
H       -0.22290000       1.87440000      -0.97740000
H       -0.67880000       1.97550000       0.73500000
H       -2.78950000      -1.65440000       0.04480000
H        0.03190000      -1.80470000       2.89530000
H        0.62900000      -2.83700000       1.60640000
H        1.35630000      -0.11970000       1.88280000
H        2.15870000      -0.25510000      -0.50200000
H        0.34520000      -1.86890000      -1.55120000
