20
Properties=species:S:1:pos:R:3 gdb_113811=T pbc="F F F"
C        0.96680000       1.13790000      -0.24450000
C        0.00010000       0.06130000       0.17870000
O        0.55590000      -1.20190000       0.55550000
C       -0.11260000      -0.43140000       1.56290000
C        0.69010000       0.15060000       2.69220000
N        0.70450000      -0.60650000       3.95800000
C        1.96410000      -0.42000000       3.21400000
C        2.60700000      -1.69580000       2.72130000
O        3.26140000      -2.35880000       3.79450000
H        1.82100000       1.19290000       0.43390000
H        1.34230000       0.93600000      -1.25290000
H        0.46880000       2.11360000      -0.26300000
H       -0.88900000      -0.02730000      -0.44900000
H       -1.06570000      -0.85890000       1.87640000
H        0.59420000       1.23270000       2.78030000
H        0.65330000       0.03030000       4.74830000
H        2.67580000       0.29520000       3.62510000
H        1.85960000      -2.33650000       2.24190000
H        3.37980000      -1.47200000       1.97950000
H        2.57390000      -2.57680000       4.43390000
