17
Properties=species:S:1:pos:R:3 gdb_79283=T pbc="F F F"
O       -0.06190000       1.44560000       0.04200000
C        0.02420000       0.03550000      -0.01660000
C       -1.36770000      -0.54600000      -0.23280000
C       -1.58870000      -0.63490000      -1.71280000
C       -0.32890000      -0.09510000      -2.39680000
C        0.67800000      -0.53900000      -1.31040000
C        0.29040000      -2.02250000      -1.14420000
O        0.98840000      -3.00110000      -1.15250000
C       -1.18920000      -1.89360000      -0.94170000
H        0.81550000       1.79290000       0.23200000
H        0.50730000      -0.36660000       0.88530000
H       -2.17090000      -0.38790000       0.47400000
H       -2.57510000      -0.55130000      -2.14870000
H       -0.13110000      -0.56360000      -3.36580000
H       -0.35790000       0.99060000      -2.51530000
H        1.73570000      -0.34360000      -1.46980000
H       -1.84770000      -2.73540000      -0.78400000
