15
Properties=species:S:1:pos:R:3 gdb_113653=T pbc="F F F"
O        0.03550000       1.36400000      -0.82680000
C        0.25730000       0.18090000      -0.07690000
C       -1.06000000      -0.39470000       0.38530000
O       -1.82130000      -1.08990000      -0.59560000
C       -1.35200000      -1.84920000       0.51470000
C       -0.32020000      -2.89580000       0.23270000
O        0.37460000      -2.94830000      -0.75570000
C       -0.14820000      -3.97920000       1.30620000
O       -0.79020000      -4.01820000       2.32240000
H       -0.42090000       1.10600000      -1.63540000
H        0.81580000      -0.56820000      -0.64850000
H        0.85350000       0.47610000       0.79330000
H       -1.65220000       0.26800000       1.01870000
H       -2.10760000      -2.14500000       1.23920000
H        0.63610000      -4.71880000       1.04240000
