18
Properties=species:S:1:pos:R:3 gdb_23311=T pbc="F F F"
O       -0.08930000       1.31570000      -0.02140000
N        0.01770000      -0.08980000      -0.05450000
C       -1.12550000      -0.64430000       0.03810000
C       -2.48050000      -0.00000000       0.23080000
C       -3.32680000      -1.08460000       0.95220000
O       -4.68550000      -1.12090000       0.54360000
C       -2.65470000      -2.41040000       0.63170000
C       -2.36570000      -2.69330000      -0.81110000
C       -1.27030000      -2.12000000       0.07250000
H        0.83430000       1.58600000      -0.05040000
H       -2.39900000       0.93600000       0.78670000
H       -2.93990000       0.23530000      -0.73660000
H       -3.26320000      -0.92230000       2.03910000
H       -5.10590000      -0.30480000       0.83280000
H       -2.82140000      -3.24190000       1.30590000
H       -2.25170000      -3.73280000      -1.09640000
H       -2.81320000      -2.06760000      -1.57480000
H       -0.40220000      -2.72470000       0.30070000
