23
Properties=species:S:1:pos:R:3 gdb_60018=T pbc="F F F"
C       -0.16830000       1.59850000       0.02400000
C       -0.07250000       0.06670000      -0.00810000
C       -1.47170000      -0.56350000      -0.01140000
C        0.74580000      -0.44130000      -1.20960000
C        2.23610000      -0.08080000      -1.17950000
O        2.86980000      -0.52640000       0.01840000
C        2.97550000      -0.61720000      -2.42120000
C        4.42450000      -0.17970000      -2.47240000
O        4.97120000       0.24240000      -3.46010000
H        0.81420000       2.07170000       0.10870000
H       -0.64970000       1.98130000      -0.88440000
H       -0.76500000       1.93150000       0.87940000
H        0.44880000      -0.25730000       0.90140000
H       -2.03170000      -0.27550000      -0.90940000
H       -1.42020000      -1.65750000       0.01020000
H       -2.05240000      -0.23840000       0.85800000
H        0.66460000      -1.53800000      -1.26430000
H        0.30770000      -0.06060000      -2.14220000
H        2.34740000       1.00940000      -1.15200000
H        2.71360000      -1.47470000       0.09800000
H        2.95730000      -1.71780000      -2.38520000
H        2.48480000      -0.30940000      -3.34940000
H        4.96600000      -0.27510000      -1.50720000
