14
Properties=species:S:1:pos:R:3 gdb_10472=T pbc="F F F"
O        0.06020000       0.00790000       0.04110000
C        0.07890000       1.19290000       0.15510000
O        1.15750000       1.93050000      -0.23020000
C        1.04670000       3.32210000      -0.11780000
C        1.34160000       3.97470000       1.23040000
C        2.34860000       4.04870000       0.12830000
C        0.03100000       3.96560000      -0.99220000
O       -0.76860000       3.36170000      -1.65900000
H       -0.72820000       1.80450000       0.59180000
H        0.78390000       4.86520000       1.49870000
H        1.52730000       3.28410000       2.04460000
H        3.21930000       3.40690000       0.18710000
H        2.50300000       4.99300000      -0.38180000
H        0.06370000       5.07820000      -0.96900000
