19
Properties=species:S:1:pos:R:3 gdb_63568=T pbc="F F F"
C       -0.07230000       1.52040000      -0.15400000
C        0.06550000       0.02350000      -0.05560000
O       -1.06420000      -0.61720000      -0.55170000
C        1.40200000      -0.62570000      -0.18020000
C        0.73380000      -0.59530000       1.18950000
C        1.15660000      -0.01300000       2.54890000
C        0.47990000      -1.24250000       3.25040000
C        0.08920000      -1.75310000       1.85390000
O       -0.56140000      -2.67850000       1.42730000
H        0.81450000       2.02670000       0.23480000
H       -0.20660000       1.81070000      -1.20090000
H       -0.94850000       1.86120000       0.40560000
H       -1.08150000      -1.52720000      -0.21410000
H        1.45890000      -1.59620000      -0.66470000
H        2.27750000       0.00480000      -0.30120000
H        2.23630000       0.05160000       2.70210000
H        0.70530000       0.94950000       2.79990000
H        1.16360000      -1.90830000       3.78430000
H       -0.36950000      -1.02100000       3.90240000
