15
Properties=species:S:1:pos:R:3 gdb_31427=T pbc="F F F"
C        0.01280000       1.37870000       0.00710000
O       -0.04570000      -0.05100000       0.00380000
C       -1.25190000      -0.60740000       0.01120000
N       -2.31830000       0.13780000       0.02090000
C       -3.55240000      -0.48600000       0.02790000
N       -4.70590000       0.05390000       0.03760000
N       -3.50160000      -1.90080000       0.02360000
C       -2.33270000      -2.56090000       0.01340000
N       -1.17110000      -1.98470000       0.00670000
H        1.07530000       1.62270000      -0.00060000
H       -0.48390000       1.78840000      -0.87580000
H       -0.46980000       1.78380000       0.89990000
H       -4.59580000       1.06650000       0.03970000
H       -4.38920000      -2.38200000       0.02860000
H       -2.39160000      -3.64710000       0.01080000
