23
Properties=species:S:1:pos:R:3 gdb_121113=T pbc="F F F"
C        0.19080000       1.57710000      -0.04500000
C        0.03090000       0.05520000      -0.07880000
C       -1.40860000      -0.39480000       0.19020000
C       -1.57100000      -1.90200000       0.14850000
O       -0.79070000      -2.52490000       1.16450000
C       -1.54410000      -3.61060000       1.68980000
C       -2.85210000      -3.60660000       0.87140000
C       -4.11320000      -3.93350000       1.64760000
O       -2.90650000      -2.26470000       0.39780000
H        1.22670000       1.87260000      -0.23840000
H       -0.44040000       2.06010000      -0.79950000
H       -0.09450000       1.98330000       0.93180000
H        0.35410000      -0.32550000      -1.05690000
H        0.69010000      -0.40770000       0.66350000
H       -1.74280000      -0.05040000       1.17560000
H       -2.08880000       0.03640000      -0.55440000
H       -1.25360000      -2.30420000      -0.83410000
H       -0.98890000      -4.55030000       1.58290000
H       -1.73730000      -3.43730000       2.75690000
H       -2.74870000      -4.29080000       0.01280000
H       -4.23040000      -3.24500000       2.48960000
H       -4.99360000      -3.84910000       1.00500000
H       -4.06900000      -4.95650000       2.03420000
