25
Properties=species:S:1:pos:R:3 gdb_60170=T pbc="F F F"
C        0.45550000       1.36180000      -0.26850000
C       -0.07530000      -0.03700000       0.07480000
C        0.67530000      -0.62090000       1.27830000
C       -1.59670000      -0.04500000       0.33700000
C       -2.41790000       0.34600000      -0.86960000
O       -2.37750000      -0.53130000      -2.00750000
C       -3.64140000      -0.33040000      -1.34930000
C       -4.21960000      -1.54950000      -0.66350000
C       -4.64180000       0.47030000      -2.15830000
H        1.53640000       1.33520000      -0.44170000
H       -0.01020000       1.76940000      -1.17050000
H        0.27040000       2.06490000       0.55330000
H        0.10070000      -0.69030000      -0.78970000
H        0.51960000      -0.00760000       2.17450000
H        0.33620000      -1.63660000       1.50800000
H        1.75330000      -0.66210000       1.08990000
H       -1.88640000      -1.04210000       0.68120000
H       -1.82950000       0.65170000       1.15530000
H       -2.32950000       1.39970000      -1.14480000
H       -3.44820000      -2.14700000      -0.17650000
H       -4.96440000      -1.25780000       0.08510000
H       -4.72130000      -2.18740000      -1.39950000
H       -5.09400000      -0.15600000      -2.93530000
H       -5.44940000       0.84610000      -1.52030000
H       -4.15780000       1.32050000      -2.64500000
