15
Properties=species:S:1:pos:R:3 gdb_2611=T pbc="F F F"
C       -0.04740000      -1.23000000      -0.00460000
C       -0.04430000      -0.02820000       0.00260000
C       -0.00760000       1.42860000       0.01070000
C        1.42750000       1.99050000      -0.00100000
C        1.43670000       3.53170000       0.00790000
C        2.78320000       4.08890000      -0.00280000
C        3.90380000       4.52340000      -0.01230000
H       -0.06110000      -2.29160000      -0.01090000
H       -0.55830000       1.81320000      -0.85830000
H       -0.54000000       1.80290000       0.89550000
H        1.97490000       1.61570000       0.86900000
H        1.95660000       1.62600000      -0.88660000
H        0.87900000       3.90610000      -0.86100000
H        0.89740000       3.89580000       0.89270000
H        4.88960000       4.91740000      -0.02080000
