14
Properties=species:S:1:pos:R:3 gdb_49371=T pbc="F F F"
N        0.00220000       1.27120000      -0.49530000
C        0.01700000       0.08710000      -0.09070000
O        1.02650000      -0.68630000       0.43700000
C        0.11730000      -1.83300000       0.65480000
C        0.04480000      -2.22180000       2.04440000
C        0.02140000      -2.55960000       3.19620000
C       -1.03630000      -0.99350000       0.02330000
C       -2.29580000      -0.66690000       0.80390000
O       -2.86200000      -1.44470000       1.52250000
H        0.91520000       1.71910000      -0.40460000
H        0.44100000      -2.66940000       0.02980000
H       -0.01910000      -2.85430000       4.21630000
H       -1.34710000      -1.37140000      -0.95710000
H       -2.67110000       0.36310000       0.62720000
