23
Properties=species:S:1:pos:R:3 gdb_109943=T pbc="F F F"
C       -0.04270000       1.65890000       0.19330000
C       -0.08250000       0.12950000       0.28980000
C       -1.46920000      -0.45910000       0.05100000
C       -2.03890000      -0.61310000      -1.39600000
C       -1.16180000      -0.32860000      -2.60100000
O       -2.21920000      -2.04250000      -1.20110000
C       -1.63830000      -1.97700000       0.09920000
C       -0.70790000      -3.04050000       0.58920000
C       -2.09250000      -2.86940000       1.20400000
H        0.96220000       2.04130000       0.39700000
H       -0.33410000       2.00900000      -0.80200000
H       -0.72660000       2.11650000       0.91680000
H        0.63940000      -0.31100000      -0.40680000
H        0.24880000      -0.17260000       1.29230000
H       -2.19060000       0.04720000       0.70190000
H       -3.01440000      -0.12740000      -1.52570000
H       -0.17280000      -0.78290000      -2.49670000
H       -1.63180000      -0.74990000      -3.49530000
H       -1.04110000       0.74830000      -2.75800000
H       -0.55460000      -3.89350000      -0.06330000
H        0.16030000      -2.75430000       1.17420000
H       -2.16880000      -2.46090000       2.20720000
H       -2.84240000      -3.61400000       0.95860000
