19
Properties=species:S:1:pos:R:3 gdb_79196=T pbc="F F F"
C        0.00710000       1.41800000      -0.00610000
C       -0.05250000      -0.08970000      -0.02890000
C       -0.90900000      -0.85350000       0.93330000
O       -1.83890000      -1.82830000       0.55190000
C        0.59870000      -1.00360000       1.03130000
C        1.41060000      -1.89490000       0.07330000
C        0.45200000      -2.30950000      -1.06400000
C        0.55920000      -0.78540000      -1.27220000
O        1.97170000      -0.89580000      -0.85930000
H        1.00530000       1.76100000      -0.29780000
H       -0.72120000       1.85840000      -0.69760000
H       -0.20550000       1.81190000       0.99270000
H       -1.29640000      -0.20990000       1.72780000
H       -1.94140000      -2.43810000       1.29090000
H        1.10470000      -0.60040000       1.90260000
H        2.15900000      -2.55860000       0.50590000
H        1.00480000      -2.83040000      -1.84570000
H       -0.50600000      -2.76830000      -0.84610000
H        0.41980000      -0.29300000      -2.23500000
