19
Properties=species:S:1:pos:R:3 gdb_95479=T pbc="F F F"
O        0.03200000       1.52010000       0.16690000
C        0.05790000       0.11170000       0.04600000
C        0.75550000      -0.50450000       1.27320000
C        0.06530000      -0.17300000       2.62000000
C       -1.43760000      -0.04470000       2.52980000
C       -2.04060000      -0.24030000       1.36910000
C       -3.24220000       0.24510000       0.59770000
O       -2.39930000       0.32710000      -0.59900000
C       -1.35680000      -0.46250000       0.05270000
H       -0.76760000       1.80970000      -0.29280000
H        0.59680000      -0.18370000      -0.86810000
H        0.78840000      -1.59100000       1.12390000
H        1.79410000      -0.16220000       1.30470000
H        0.36050000      -0.91380000       3.37390000
H        0.44140000       0.78960000       2.99040000
H       -1.96990000       0.32980000       3.40080000
H       -4.05300000      -0.48020000       0.44720000
H       -3.66650000       1.21560000       0.87660000
H       -1.36410000      -1.49170000      -0.33230000
