13
Properties=species:S:1:pos:R:3 gdb_2983=T pbc="F F F"
O       -0.80760000       0.84960000       0.10800000
C       -0.12650000      -0.37300000      -0.11200000
C        0.95840000      -0.21770000      -1.09900000
N        1.82470000      -0.07110000      -1.84960000
C        0.41150000      -1.00320000       1.17410000
C        0.91540000      -0.15470000       2.27730000
N       -0.37190000      -0.86570000       2.39990000
H       -0.15710000       1.55460000       0.20140000
H       -0.87720000      -1.04850000      -0.54010000
H        0.84960000      -1.98620000       1.01690000
H        1.71180000      -0.52060000       2.91750000
H        0.89540000       0.92500000       2.15490000
H       -1.12430000      -0.20020000       2.22700000
