17
Properties=species:S:1:pos:R:3 gdb_73660=T pbc="F F F"
O        0.38970000       1.40460000      -0.21170000
C        0.12440000       0.03800000      -0.07020000
C        0.70410000      -0.78010000      -1.24860000
C       -0.35690000      -1.84490000      -1.56040000
O       -1.60430000      -1.29750000      -1.13340000
C       -1.35280000      -0.52290000       0.01070000
C       -0.98690000      -1.29960000       1.32550000
C        0.31910000      -0.50360000       1.35110000
O        1.07230000      -0.14880000       2.21670000
H        0.78270000       1.70700000       0.61690000
H        0.80330000      -0.06890000      -2.07310000
H        1.68960000      -1.20380000      -1.04220000
H       -0.44300000      -2.07270000      -2.62520000
H       -0.14640000      -2.78650000      -1.03090000
H       -2.14390000       0.21700000       0.12970000
H       -1.63020000      -1.14170000       2.19380000
H       -0.86030000      -2.37540000       1.17450000
