18
Properties=species:S:1:pos:R:3 gdb_35909=T pbc="F F F"
N       -0.02230000      -1.14880000      -0.18420000
C       -0.00480000       0.00250000      -0.08600000
C        0.00910000       1.46390000       0.03690000
C       -0.77440000       1.93770000       1.28220000
C       -0.68760000       3.46240000       1.40590000
C        0.75350000       3.95150000       1.63260000
C        1.78230000       3.20210000       0.80470000
O        2.13920000       1.89100000       1.27480000
C        1.44210000       1.98950000       0.04060000
H       -0.48050000       1.86500000      -0.86190000
H       -1.81480000       1.61350000       1.19270000
H       -0.35400000       1.45440000       2.16900000
H       -1.08640000       3.91430000       0.48800000
H       -1.32860000       3.80720000       2.22310000
H        0.82440000       5.02100000       1.40790000
H        1.03320000       3.83550000       2.68650000
H        2.64070000       3.78230000       0.46620000
H        2.02960000       1.72770000      -0.83960000
