19
Properties=species:S:1:pos:R:3 gdb_32204=T pbc="F F F"
C       -0.10510000       1.59390000       0.01920000
C        0.02530000       0.05860000       0.01360000
C        0.73980000      -0.49090000       1.22880000
C        2.07970000      -0.87990000       1.16120000
C        2.76280000      -1.35920000       2.27460000
C        2.09480000      -1.45930000       3.49280000
C        0.76000000      -1.08520000       3.58960000
C        0.08670000      -0.60260000       2.46790000
O       -1.22280000      -0.25120000       2.64280000
H        0.88370000       2.06130000       0.03800000
H       -0.63500000       1.94720000      -0.87100000
H       -0.64840000       1.94910000       0.90100000
H       -0.97320000      -0.39430000      -0.08520000
H        0.56790000      -0.25300000      -0.88480000
H        2.59310000      -0.80330000       0.20660000
H        3.80280000      -1.65420000       2.19060000
H        2.61040000      -1.83270000       4.37140000
H        0.21710000      -1.15870000       4.52520000
H       -1.60040000       0.00670000       1.79670000
