14
Properties=species:S:1:pos:R:3 gdb_66701=T pbc="F F F"
O       -0.11250000       1.38930000      -0.01870000
C        0.04050000       0.03110000      -0.00220000
C       -1.00220000      -1.01770000       0.17080000
C       -0.28700000      -1.89040000      -0.91520000
C        0.74840000      -0.85720000      -1.09670000
N        1.09830000      -2.14250000      -0.43670000
C        1.11570000      -1.90820000       1.00240000
O        1.84630000      -2.46120000       1.76930000
C        0.08150000      -0.85880000       1.23800000
H        0.70430000       1.79900000       0.29120000
H       -2.05930000      -0.94060000       0.37550000
H       -0.73740000      -2.59610000      -1.59990000
H        1.31520000      -0.53080000      -1.95910000
H       -0.14910000      -0.46530000       2.21730000
