15
Properties=species:S:1:pos:R:3 gdb_29088=T pbc="F F F"
C        0.04950000       1.51550000       0.19490000
C       -0.06270000       0.03980000       0.02850000
C       -1.12540000      -0.62600000      -0.40790000
O       -1.15570000      -1.99400000      -0.53620000
C       -0.05100000      -2.73590000      -0.20670000
N       -0.04590000      -3.99220000      -0.31470000
C        1.16270000      -1.99890000       0.29160000
N        2.21090000      -2.61990000       0.61450000
O        1.09050000      -0.62970000       0.38270000
H        0.86210000       1.91570000      -0.42160000
H       -0.88210000       2.00520000      -0.09550000
H        0.27050000       1.77350000       1.23660000
H       -2.05500000      -0.16180000      -0.69970000
H       -0.94980000      -4.31550000      -0.66590000
H        2.92550000      -1.95920000       0.92730000
