18
Properties=species:S:1:pos:R:3 gdb_6995=T pbc="F F F"
C       -0.65420000       1.30420000      -0.04990000
C        0.10960000      -0.01080000      -0.02190000
C        1.50980000      -0.08740000      -0.71870000
C        1.92820000      -0.99260000       0.43900000
O        2.67100000      -1.92800000       0.55930000
C        0.75840000      -0.52800000       1.32190000
C        1.13060000       0.56540000       2.32340000
O        0.07980000      -1.57330000       1.98040000
H       -0.03870000       2.14030000       0.29650000
H       -0.98430000       1.53680000      -1.06770000
H       -1.54530000       1.25600000       0.58440000
H       -0.52160000      -0.82310000      -0.39460000
H        1.58240000      -0.51370000      -1.72100000
H        2.03440000       0.87430000      -0.70130000
H        1.66380000       1.39870000       1.85600000
H        0.22390000       0.95510000       2.79540000
H        1.76860000       0.14120000       3.10370000
H        0.66280000      -2.34290000       1.96090000
