23
Properties=species:S:1:pos:R:3 gdb_95238=T pbc="F F F"
C       -0.34970000       1.48620000       0.08120000
C       -0.01850000      -0.00100000      -0.01080000
C        0.60840000      -0.36290000      -1.36390000
C        0.76920000      -1.86230000      -1.64360000
C        1.69620000      -2.66470000      -0.74430000
C        2.90050000      -2.09250000      -0.02900000
C        1.71300000      -2.58340000       0.76260000
C        0.86040000      -1.61130000       1.55780000
O        0.85460000      -0.28280000       1.07970000
H        0.55890000       2.08540000      -0.03710000
H       -1.05960000       1.77760000      -0.69850000
H       -0.78470000       1.71780000       1.05670000
H       -0.94630000      -0.58550000       0.11860000
H       -0.02530000       0.05810000      -2.15460000
H        1.57580000       0.14860000      -1.44050000
H       -0.22540000      -2.33170000      -1.62340000
H        1.12500000      -1.97360000      -2.67640000
H        1.84460000      -3.67280000      -1.12590000
H        3.81910000      -2.66880000      -0.01710000
H        3.04400000      -1.01840000      -0.05150000
H        1.83110000      -3.53260000       1.28150000
H       -0.17320000      -1.99100000       1.63240000
H        1.25650000      -1.55200000       2.57900000
