20
Properties=species:S:1:pos:R:3 gdb_51671=T pbc="F F F"
O       -0.11850000       0.16940000       0.67390000
C       -0.01960000       1.22570000       0.08720000
N        1.14060000       1.76500000      -0.38030000
C        2.43180000       1.13820000      -0.23130000
C        3.37470000       1.05460000      -1.46770000
C        4.57260000       1.49610000      -0.57500000
C        4.94360000       2.99060000      -0.70160000
C        3.78500000       3.35220000       0.27720000
C        3.55380000       1.84090000       0.57470000
H       -0.89030000       1.87430000      -0.13720000
H        1.08440000       2.65470000      -0.85060000
H        2.23500000       0.14900000       0.18430000
H        3.44570000       0.06700000      -1.92840000
H        3.13650000       1.77840000      -2.25490000
H        5.37630000       0.76860000      -0.46180000
H        5.92490000       3.21700000      -0.27610000
H        4.90130000       3.41880000      -1.70810000
H        4.08730000       3.94110000       1.14540000
H        2.93290000       3.86500000      -0.18030000
H        3.68000000       1.53530000       1.61400000
