19
Properties=species:S:1:pos:R:3 gdb_88083=T pbc="F F F"
C       -0.04100000       1.51640000      -0.09210000
C       -0.05050000       0.02580000       0.13140000
O        1.18930000      -0.67810000      -0.05490000
C        0.61440000      -0.63330000       1.26110000
C        1.39050000       0.06140000       2.38200000
C        1.92760000      -1.08930000       3.27490000
C        0.96940000      -2.23850000       3.02180000
O       -0.41150000      -1.85910000       3.10910000
C        0.18820000      -1.96680000       1.80840000
H        0.82070000       1.98750000       0.38540000
H       -0.00470000       1.74040000      -1.16320000
H       -0.95420000       1.96520000       0.31340000
H       -0.90750000      -0.49210000      -0.30590000
H        2.19030000       0.68360000       1.97820000
H        0.71470000       0.70100000       2.95560000
H        2.93360000      -1.39390000       2.96450000
H        1.97710000      -0.81080000       4.33150000
H        1.19790000      -3.24660000       3.35770000
H       -0.20820000      -2.73200000       1.14700000
