21
Properties=species:S:1:pos:R:3 gdb_106376=T pbc="F F F"
C       -0.15360000       1.35160000       0.02250000
O        0.11010000      -0.03470000      -0.03720000
C        0.72680000      -0.56300000       1.09000000
C        0.04450000      -0.61160000       2.50030000
C        1.04730000      -1.78300000       2.69650000
C        0.84160000      -2.10270000       1.18970000
C        2.39580000      -1.04610000       2.68620000
O        3.44340000      -1.98420000       2.51230000
C        2.15940000      -0.10200000       1.45950000
H        0.76770000       1.95000000       0.06010000
H       -0.70090000       1.61110000      -0.88660000
H       -0.77230000       1.61140000       0.89390000
H        0.12930000       0.25760000       3.16000000
H       -0.99130000      -0.95290000       2.44500000
H        0.91190000      -2.53580000       3.47070000
H       -0.11430000      -2.59040000       0.98960000
H        1.65520000      -2.59770000       0.65700000
H        2.54380000      -0.47490000       3.61420000
H        4.27020000      -1.49860000       2.43270000
H        2.87420000      -0.30700000       0.65720000
H        2.21560000       0.95790000       1.72310000
