18
Properties=species:S:1:pos:R:3 gdb_34756=T pbc="F F F"
N       -0.08790000      -1.19430000      -0.14930000
C       -0.05190000      -0.04060000      -0.07660000
C       -0.01730000       1.41180000       0.00430000
C        0.03660000       2.08190000       1.40770000
C        1.53330000       1.65090000       1.55690000
C        2.28250000       2.72960000       2.33790000
C        1.62900000       4.00260000       1.72740000
C        0.66060000       3.35100000       0.74170000
C        1.36410000       2.12450000       0.07520000
H       -0.73630000       1.84260000      -0.69820000
H       -0.74310000       2.04720000       2.17010000
H        1.76260000       0.60310000       1.75180000
H        2.11730000       2.64400000       3.41610000
H        3.36230000       2.68390000       2.16690000
H        1.10740000       4.61090000       2.47260000
H        2.35230000       4.65070000       1.22300000
H        0.02360000       3.99070000       0.12750000
H        2.12400000       2.13920000      -0.70760000
