16
Properties=species:S:1:pos:R:3 gdb_52758=T pbc="F F F"
C       -0.04400000       1.27450000       0.27540000
C       -0.00800000      -0.16770000       0.08600000
C        0.00610000      -1.36440000      -0.04570000
C        0.06510000      -2.81250000      -0.26770000
N       -1.21950000      -3.47960000      -0.27550000
C       -1.67980000      -4.14660000       0.81810000
O       -1.14560000      -4.14100000       1.90600000
C        0.76730000      -3.03760000      -1.61340000
O        0.25470000      -3.61130000      -2.53690000
H        0.96780000       1.68520000       0.36010000
H       -0.53900000       1.77460000      -0.56380000
H       -0.58670000       1.53600000       1.19010000
H        0.67410000      -3.27040000       0.52530000
H       -1.61340000      -3.66960000      -1.18610000
H       -2.61620000      -4.69550000       0.60150000
H        1.77930000      -2.59170000      -1.67560000
