17
Properties=species:S:1:pos:R:3 gdb_62131=T pbc="F F F"
O        1.73830000       1.58520000       0.27450000
C        0.62220000       0.78720000      -0.09890000
C        1.08050000      -0.23830000      -1.14270000
O       -0.03310000      -0.88680000      -1.76790000
C       -0.31550000      -0.57750000      -3.05030000
O       -1.24620000      -1.04140000      -3.63450000
C       -0.00270000       0.19580000       1.14840000
C       -0.49160000      -1.18020000       1.27720000
O        0.79370000      -0.80910000       1.79470000
H        2.26290000       1.06300000       0.89400000
H       -0.09660000       1.46890000      -0.56930000
H        1.69350000       0.28250000      -1.88590000
H        1.68590000      -1.01630000      -0.66910000
H        0.41000000       0.13730000      -3.48560000
H       -0.39700000       0.94910000       1.83110000
H       -1.24400000      -1.39930000       2.03280000
H       -0.48130000      -1.84520000       0.41910000
