23
Properties=species:S:1:pos:R:3 gdb_60386=T pbc="F F F"
C        0.09800000       1.52140000      -0.16290000
C        0.05300000       0.00500000       0.02840000
O        0.65660000      -0.37560000       1.26340000
C       -1.36920000      -0.55700000      -0.10420000
C       -1.43860000      -2.08180000       0.04090000
C       -2.84860000      -2.63380000      -0.04340000
O       -3.71710000      -2.17980000       0.96880000
C       -3.46670000      -2.94450000      -1.38620000
C       -3.07190000      -4.06090000      -0.43530000
H        1.12090000       1.88870000      -0.04400000
H       -0.26260000       1.80860000      -1.15610000
H       -0.53470000       2.02510000       0.57910000
H        0.68720000      -0.46760000      -0.73300000
H        0.15450000       0.04010000       1.97370000
H       -1.99810000      -0.08510000       0.66600000
H       -1.78290000      -0.25160000      -1.07460000
H       -0.82600000      -2.55010000      -0.73960000
H       -0.99740000      -2.36750000       1.00160000
H       -3.98690000      -1.28290000       0.74500000
H       -4.52700000      -2.74820000      -1.50190000
H       -2.87410000      -2.79340000      -2.28260000
H       -2.20980000      -4.67140000      -0.68080000
H       -3.87300000      -4.58200000       0.07550000
