17
Properties=species:S:1:pos:R:3 gdb_22556=T pbc="F F F"
C       -0.14430000       1.49500000       0.00420000
C        0.02480000       0.00090000       0.04200000
N        0.12520000      -0.70670000       1.10380000
O        0.04830000       0.05770000       2.27070000
C        0.04780000      -0.75170000      -1.25260000
C       -0.20490000      -2.22750000      -1.26790000
N       -1.22650000      -1.32760000      -1.78810000
C        0.91830000      -0.22600000      -2.34940000
O        1.77060000       0.61480000      -2.21330000
H        0.82800000       1.97390000      -0.14540000
H       -0.77910000       1.78750000      -0.83680000
H       -0.57720000       1.85710000       0.93640000
H        0.13150000      -0.61170000       2.95810000
H        0.28840000      -2.84180000      -2.01630000
H       -0.33790000      -2.68620000      -0.29480000
H       -1.95140000      -1.19280000      -1.08560000
H        0.70870000      -0.70570000      -3.33040000
