17
Properties=species:S:1:pos:R:3 gdb_14370=T pbc="F F F"
C       -0.04520000       1.48120000       0.06540000
N        1.47990000       1.30210000       0.07890000
C        1.18180000       0.10200000       1.01630000
C        0.09530000      -0.05400000      -0.08050000
C       -0.87120000      -0.92360000      -0.84070000
O       -0.75740000      -0.37560000      -2.17460000
C        0.47910000       0.36460000      -2.37770000
C        1.22840000       0.24230000      -1.05570000
H       -0.44120000       1.86470000       1.00930000
H       -0.41950000       2.06500000      -0.77520000
H        1.98640000      -0.63650000       1.05400000
H        0.86930000       0.41430000       2.01560000
H       -0.57980000      -1.98400000      -0.82770000
H       -1.92030000      -0.83740000      -0.54350000
H        1.03590000      -0.10650000      -3.19480000
H        0.22760000       1.38540000      -2.68240000
H        2.05880000      -0.46670000      -1.10320000
