18
Properties=species:S:1:pos:R:3 gdb_35749=T pbc="F F F"
N        0.00750000      -1.15140000       0.05790000
C       -0.00100000       0.00390000       0.01810000
C       -0.01550000       1.46000000      -0.01330000
C       -0.54510000       2.10310000       1.29890000
O        0.01980000       3.39750000       1.29170000
C        1.36080000       3.23240000       0.88300000
C        2.20440000       4.45810000       0.85470000
C        2.43880000       3.39910000       1.92230000
C        1.39280000       2.11620000      -0.16440000
H       -0.65640000       1.77780000      -0.84060000
H       -1.63190000       2.19670000       1.32500000
H       -0.20970000       1.51930000       2.16840000
H        2.93230000       4.56270000       0.05710000
H        1.73350000       5.38370000       1.16610000
H        2.11730000       3.63580000       2.93030000
H        3.33030000       2.78420000       1.85510000
H        2.19220000       1.39860000       0.02890000
H        1.52470000       2.50390000      -1.17720000
