23
Properties=species:S:1:pos:R:3 gdb_123191=T pbc="F F F"
C        0.04750000       1.57390000       0.00470000
C        0.01170000       0.04350000      -0.00080000
C       -1.41130000      -0.52540000       0.01310000
C       -1.45110000      -2.05680000       0.01150000
C       -2.87200000      -2.61730000       0.01520000
N       -2.85910000      -4.07850000       0.05390000
C       -4.19790000      -4.65120000       0.01020000
C       -4.14870000      -6.11600000      -0.00080000
N       -4.11170000      -7.26990000      -0.03360000
H        1.07550000       1.94920000      -0.00560000
H       -0.46580000       1.98560000      -0.87150000
H       -0.44540000       1.97860000       0.89560000
H        0.54260000      -0.33300000      -0.88520000
H        0.56220000      -0.34020000       0.86820000
H       -1.94340000      -0.14830000       0.89760000
H       -1.96280000      -0.14270000      -0.85710000
H       -0.91770000      -2.43320000      -0.87320000
H       -0.91660000      -2.45050000       0.88420000
H       -3.40510000      -2.26470000       0.90870000
H       -3.43100000      -2.22240000      -0.85510000
H       -2.31440000      -4.43800000      -0.72400000
H       -4.74740000      -4.33210000       0.90500000
H       -4.80340000      -4.32590000      -0.85680000
