17
Properties=species:S:1:pos:R:3 gdb_38149=T pbc="F F F"
C       -0.02560000       1.46110000      -0.11440000
C        1.42040000       1.89880000       0.24490000
C        2.17260000       0.59380000       0.07170000
O        3.52130000       0.45050000      -0.32750000
C        3.10500000      -0.11160000       0.95630000
C        2.71570000      -1.55340000       0.92430000
C        1.63370000      -1.73590000       0.15770000
C        1.18520000      -0.44020000      -0.47280000
O       -0.07410000       0.03520000      -0.00980000
H       -0.78330000       1.86340000       0.56120000
H       -0.27390000       1.77430000      -1.14000000
H        1.79750000       2.66860000      -0.43340000
H        1.48980000       2.28250000       1.26560000
H        3.58570000       0.34250000       1.81730000
H        3.25030000      -2.32900000       1.45990000
H        1.16420000      -2.68790000      -0.06070000
H        1.20180000      -0.49600000      -1.57420000
