19
Properties=species:S:1:pos:R:3 gdb_82242=T pbc="F F F"
C       -0.69950000       1.38130000      -0.16070000
C       -0.04780000      -0.00120000      -0.05270000
C        0.93620000      -0.30520000      -1.17550000
O        2.14220000       0.45860000      -1.09240000
C        2.17450000      -0.90310000      -0.64470000
C        2.06610000      -1.01760000       0.86840000
O        2.88150000      -0.07820000       1.59360000
C        1.74480000       0.78690000       1.82730000
C        0.76460000      -0.26020000       1.23930000
H        0.05740000       2.16940000      -0.19440000
H       -1.30250000       1.45880000      -1.07120000
H       -1.35830000       1.57460000       0.69180000
H       -0.83920000      -0.76170000      -0.10650000
H        0.57600000      -0.49750000      -2.18480000
H        2.81270000      -1.56690000      -1.22260000
H        2.21250000      -2.04700000       1.21440000
H        1.62150000       1.00220000       2.89500000
H        1.83080000       1.72470000       1.27080000
H        0.15510000      -0.73330000       2.01020000
