18
Properties=species:S:1:pos:R:3 gdb_69172=T pbc="F F F"
C        0.01650000       1.56940000       0.08650000
C       -0.03340000       0.07740000      -0.03440000
C       -0.88020000      -0.80750000       0.78080000
N        0.59890000      -0.83710000       1.03540000
C        1.16100000      -1.63100000      -0.05430000
O        1.87340000      -2.58620000      -0.00380000
C        0.61700000      -0.74080000      -1.13800000
C        0.15730000      -1.11450000      -2.52330000
C        1.39250000      -0.28000000      -2.34440000
H        1.02270000       1.94660000      -0.12060000
H       -0.67600000       2.04020000      -0.62090000
H       -0.26680000       1.88430000       1.09440000
H       -1.42520000      -0.37880000       1.61650000
H       -1.34660000      -1.68350000       0.33680000
H        0.27470000      -2.15310000      -2.81330000
H       -0.73850000      -0.63140000      -2.89870000
H        1.33840000       0.77370000      -2.59680000
H        2.36020000      -0.74110000      -2.50960000
