23
Properties=species:S:1:pos:R:3 gdb_122823=T pbc="F F F"
C       -0.39650000       1.47320000      -0.21800000
C        0.11200000       0.04800000       0.01440000
C        0.73380000      -0.57920000      -1.23740000
C        1.24240000      -2.00280000      -0.99510000
N        1.84460000      -2.58500000      -2.18350000
C        1.53690000      -3.86900000      -2.58680000
O        0.65630000      -4.54060000      -2.07530000
N        2.32790000      -4.33010000      -3.62460000
C        1.97780000      -5.56670000      -4.29940000
H        0.41570000       2.13670000      -0.53570000
H       -1.16520000       1.49640000      -0.99830000
H       -0.83360000       1.89480000       0.69240000
H        0.85210000       0.05090000       0.82590000
H       -0.71480000      -0.58500000       0.36220000
H       -0.00030000      -0.60050000      -2.05240000
H        1.56290000       0.05300000      -1.58720000
H        1.95710000      -2.00480000      -0.15810000
H        0.42150000      -2.66750000      -0.71680000
H        2.72810000      -2.20180000      -2.48060000
H        2.80140000      -3.63550000      -4.18090000
H        2.88060000      -6.04940000      -4.68500000
H        1.50250000      -6.22150000      -3.56900000
H        1.27550000      -5.41720000      -5.13100000
