16
Properties=species:S:1:pos:R:3 gdb_78964=T pbc="F F F"
O        0.07310000       1.46230000      -0.01360000
C        0.00670000       0.06280000      -0.01790000
C        0.23200000      -0.73420000       1.27400000
C       -0.73650000      -1.85500000       0.79020000
C       -1.65320000      -1.51880000       1.99700000
C       -2.03510000      -0.26300000       1.31790000
N       -0.85280000      -0.28040000       2.25500000
C       -1.36850000      -0.66040000      -0.02690000
O       -2.13500000      -0.87720000      -1.15730000
H       -0.28210000       1.76030000       0.83260000
H        0.63620000      -0.30850000      -0.83360000
H        1.20280000      -0.87430000       1.74390000
H       -0.46730000      -2.81310000       0.35760000
H       -2.11980000      -2.09840000       2.78390000
H       -2.83610000       0.43800000       1.51960000
H       -2.37490000      -0.01870000      -1.52600000
