20
Properties=species:S:1:pos:R:3 gdb_89496=T pbc="F F F"
C       -0.17050000       1.52080000       0.05790000
C        0.08760000       0.02020000       0.05670000
C        0.77430000      -0.50070000      -1.26740000
C        1.49850000      -1.75460000      -0.74020000
C        0.72000000      -3.05840000      -0.92180000
C        3.04100000      -1.98890000      -0.62350000
O        2.96190000      -1.79900000       0.84980000
C        1.71030000      -1.27780000       0.65860000
N        1.04310000      -0.33600000       1.16480000
H        0.77050000       2.07120000      -0.04280000
H       -0.82700000       1.79990000      -0.77340000
H       -0.64380000       1.83060000       0.99320000
H       -0.86650000      -0.50280000       0.21280000
H        0.06130000      -0.69760000      -2.07300000
H        1.48450000       0.25860000      -1.61390000
H        0.78180000      -3.39860000      -1.96130000
H        1.11590000      -3.85160000      -0.28020000
H       -0.33750000      -2.92330000      -0.67650000
H        3.40850000      -2.98760000      -0.86580000
H        3.67670000      -1.21220000      -1.05640000
