17
Properties=species:S:1:pos:R:3 gdb_68124=T pbc="F F F"
O       -0.15490000       1.40130000      -0.01710000
C       -0.03670000       0.01780000      -0.01140000
C        0.11490000      -0.84650000       1.29440000
C       -0.38300000      -1.95800000       0.31530000
C       -1.30590000      -0.83240000      -0.31620000
C       -0.97840000      -3.24280000       0.78140000
O       -1.23650000      -3.50180000       1.93040000
C        0.75240000      -1.97380000      -0.72860000
C        0.99040000      -0.67780000      -0.93110000
H        0.68510000       1.78320000       0.25930000
H        1.11530000      -0.97070000       1.71350000
H       -0.61750000      -0.59770000       2.06580000
H       -2.15760000      -0.57510000       0.31930000
H       -1.59710000      -0.95200000      -1.36070000
H       -1.19600000      -3.97380000      -0.03270000
H        1.21750000      -2.85310000      -1.15170000
H        1.70420000      -0.18210000      -1.57440000
