13
Properties=species:S:1:pos:R:3 gdb_8787=T pbc="F F F"
C       -0.06350000       1.44870000       0.07120000
N        0.14710000       0.01980000      -0.02700000
C        0.59230000      -0.58400000      -1.14830000
O        0.87380000      -0.04820000      -2.20390000
C        0.71970000      -2.11130000      -0.95740000
O        0.43810000      -2.64340000       0.09680000
C        1.19040000      -2.84050000      -2.10850000
C        1.58050000      -3.48480000      -3.04700000
H        0.56760000       1.88850000       0.85090000
H        0.19970000       1.88860000      -0.89180000
H       -1.11030000       1.67930000       0.29670000
H       -0.03640000      -0.58830000       0.75820000
H        1.92590000      -4.04490000      -3.88210000
