16
Properties=species:S:1:pos:R:3 gdb_43886=T pbc="F F F"
O        0.14980000       0.19360000      -0.76900000
C       -0.03310000       1.19190000      -0.15360000
C       -1.20730000       2.05090000       0.31140000
C       -0.10880000       2.93170000       0.92800000
C        0.18840000       4.41580000       0.63840000
N        0.41390000       4.71100000       2.10050000
C       -0.86220000       4.38840000       2.75710000
C        0.03360000       3.26810000       2.39890000
O        0.91290000       2.01330000       0.41470000
H       -1.78730000       2.49680000      -0.49870000
H       -1.87860000       1.55880000       1.01760000
H        1.11740000       4.53500000       0.07850000
H       -0.60540000       5.01440000       0.17960000
H       -0.89310000       4.68440000       3.80090000
H       -1.79420000       4.54050000       2.21480000
H        0.56460000       2.66200000       3.12490000
