16
Properties=species:S:1:pos:R:3 gdb_128501=T pbc="F F F"
C       -0.54520000       1.59420000      -0.72580000
O       -0.67920000       0.16520000      -0.76730000
C        0.39620000      -0.53150000      -1.10080000
C        0.51600000      -1.89860000      -1.22250000
C       -0.47690000      -2.99760000      -0.99170000
N       -0.22240000      -3.87160000       0.16170000
N        1.81920000      -2.10680000      -1.58270000
N        2.48540000      -1.05970000      -1.69230000
O        1.53590000       0.06960000      -1.36730000
H        0.20650000       1.88970000       0.01090000
H       -0.26440000       1.98340000      -1.70810000
H       -1.52630000       1.96940000      -0.43670000
H       -1.46620000      -2.54400000      -0.87260000
H       -0.52960000      -3.63470000      -1.88140000
H        0.68860000      -4.30860000       0.04790000
H       -0.15090000      -3.30600000       1.00370000
