21
Properties=species:S:1:pos:R:3 gdb_100866=T pbc="F F F"
C       -0.07120000       1.56730000      -0.07350000
C        0.01970000       0.03550000      -0.03220000
C        0.72220000      -0.49080000      -1.28730000
O       -0.05100000      -0.10740000      -2.41630000
C        0.73300000      -0.47820000       1.24690000
C        0.07270000       0.03870000       2.55180000
O        0.71250000      -0.44730000       3.71020000
C        0.77680000      -1.94060000       1.30880000
C        0.77530000      -3.13820000       1.43220000
H        0.91580000       2.02330000       0.07360000
H       -0.44640000       1.88160000      -1.04930000
H       -0.74350000       1.96380000       0.69150000
H       -0.99650000      -0.37970000      -0.04200000
H        1.74020000      -0.06800000      -1.34070000
H        0.81790000      -1.58340000      -1.22730000
H        0.39280000      -0.42740000      -3.20660000
H        1.76750000      -0.10520000       1.24360000
H        0.15400000       1.12680000       2.59610000
H       -0.99780000      -0.22240000       2.53360000
H        0.71550000      -1.41060000       3.64910000
H        0.79050000      -4.19780000       1.50670000
