20
Properties=species:S:1:pos:R:3 gdb_51620=T pbc="F F F"
O        0.64590000      -0.69910000       0.52960000
C        0.13830000       0.39000000       0.36780000
N        0.79250000       1.51560000      -0.03200000
C        2.20390000       1.56240000      -0.32170000
C        2.66990000       2.13190000      -1.69420000
C        3.81010000       2.83260000      -0.94320000
C        5.27410000       2.59610000      -1.17550000
C        4.67450000       3.97050000      -1.38660000
C        3.08170000       2.63220000       0.39250000
H       -0.94050000       0.58350000       0.53420000
H        0.25350000       2.36250000      -0.12920000
H        2.58340000       0.55450000      -0.15500000
H        2.92840000       1.41000000      -2.47320000
H        1.94220000       2.84450000      -2.10120000
H        5.91290000       2.44560000      -0.31080000
H        5.56930000       2.02810000      -2.05210000
H        4.56700000       4.32940000      -2.40550000
H        4.91040000       4.74670000      -0.66520000
H        2.49080000       3.51090000       0.67830000
H        3.66460000       2.30420000       1.25710000
