19
Properties=species:S:1:pos:R:3 gdb_57884=T pbc="F F F"
C       -0.73160000       1.72600000       0.43110000
C       -0.09670000       0.36980000       0.08580000
O        0.78690000      -0.01350000       1.10760000
C       -1.10620000      -0.76100000      -0.14440000
O       -1.07940000      -1.73600000       0.58070000
C       -2.06440000      -0.72710000      -1.31250000
C       -2.26220000      -2.05540000      -2.00780000
C       -3.14150000       0.28560000      -1.32570000
O       -1.99050000       0.43170000      -2.15260000
H        0.07340000       2.40950000       0.71180000
H       -1.26490000       2.14720000      -0.42260000
H       -1.40630000       1.63510000       1.28810000
H        0.45080000       0.48310000      -0.86520000
H        0.47300000      -0.87930000       1.41400000
H       -2.58510000      -2.80820000      -1.28560000
H       -3.00980000      -1.96030000      -2.79830000
H       -1.32460000      -2.39790000      -2.45640000
H       -4.06640000       0.04070000      -1.84560000
H       -3.23670000       1.00570000      -0.51660000
