19
Properties=species:S:1:pos:R:3 gdb_44620=T pbc="F F F"
O        0.04840000       0.05740000      -0.04260000
C        0.02560000       1.25940000      -0.00430000
C       -1.19870000       2.19670000       0.01010000
C       -0.44280000       3.52580000       0.06190000
C        0.73310000       3.36830000      -0.95700000
C        1.67910000       4.53690000      -0.65900000
C        1.65960000       4.48720000       0.89850000
C        0.70750000       3.30280000       1.09780000
C        1.17880000       2.23290000       0.04100000
H       -1.81000000       2.06240000      -0.88830000
H       -1.83230000       2.00600000       0.88240000
H       -1.02690000       4.44790000       0.08400000
H        0.53410000       3.12810000      -2.00340000
H        2.67720000       4.38170000      -1.07780000
H        1.29410000       5.48110000      -1.05630000
H        2.64720000       4.30490000       1.33130000
H        1.26420000       5.40460000       1.34530000
H        0.48260000       2.99670000       2.12150000
H        2.18710000       1.82040000       0.04040000
