19
Properties=species:S:1:pos:R:3 gdb_74220=T pbc="F F F"
C       -0.57760000       1.32850000       0.09090000
C        0.07220000      -0.03400000       0.08380000
C       -0.00820000      -0.78910000      -1.02360000
C        0.56480000      -2.10200000      -1.42140000
O        0.69220000      -2.36680000      -2.59220000
O        0.93960000      -3.03840000      -0.51640000
C        0.74180000      -2.86820000       0.88680000
C        1.52650000      -1.68850000       1.45240000
C        0.75230000      -0.37340000       1.38440000
H        0.17390000       2.11500000       0.23400000
H       -1.11420000       1.53200000      -0.83760000
H       -1.28320000       1.41840000       0.92640000
H       -0.51620000      -0.36050000      -1.88260000
H       -0.32960000      -2.77490000       1.10890000
H        1.09230000      -3.81000000       1.31480000
H        1.78320000      -1.89120000       2.49810000
H        2.47250000      -1.61940000       0.90420000
H        1.41250000       0.46160000       1.65650000
H       -0.02700000      -0.37270000       2.16210000
