20
Properties=species:S:1:pos:R:3 gdb_67620=T pbc="F F F"
C       -0.06480000       1.47700000       0.11200000
C       -0.01320000      -0.01070000      -0.00370000
C       -0.06080000      -0.84710000      -1.25640000
C        1.04320000      -1.88340000      -1.21630000
C        1.08420000      -2.08360000       0.28180000
N        0.77680000      -0.81190000       1.01880000
C       -0.25540000      -1.89900000       0.89950000
C       -0.81160000      -2.62230000       2.08510000
C       -1.06240000      -1.08590000      -0.12870000
H        0.92640000       1.91420000      -0.05630000
H       -0.75300000       1.89950000      -0.62710000
H       -0.40040000       1.78390000       1.10790000
H       -0.40850000      -0.39890000      -2.17930000
H        0.78960000      -2.80810000      -1.74670000
H        1.99070000      -1.50190000      -1.61280000
H        1.83450000      -2.70760000       0.75570000
H       -1.50980000      -1.98800000       2.64230000
H       -1.34930000      -3.52680000       1.77690000
H       -0.00720000      -2.91660000       2.76560000
H       -2.13790000      -1.02520000      -0.22660000
