19
Properties=species:S:1:pos:R:3 gdb_32741=T pbc="F F F"
C       -0.29930000       1.42970000      -0.02930000
C        0.29170000       0.02500000      -0.00980000
N        0.28680000      -0.51300000       1.35800000
C        0.69350000      -1.82010000       1.54970000
C        1.53710000      -2.45140000       2.41500000
C        2.43530000      -1.87880000       3.45960000
N        1.43920000      -3.82800000       2.19070000
C        0.59270000      -3.94820000       1.22880000
O        0.07930000      -2.77010000       0.77870000
H        0.29700000       2.11970000       0.57920000
H       -0.31840000       1.82250000      -1.04970000
H       -1.31960000       1.42590000       0.36410000
H       -0.31190000      -0.64670000      -0.62620000
H        1.30610000       0.03180000      -0.44080000
H        0.74440000       0.10630000       2.01450000
H        2.54800000      -0.79630000       3.33800000
H        2.05730000      -2.06150000       4.47260000
H        3.43180000      -2.32780000       3.39980000
H        0.25450000      -4.84160000       0.72900000
