21
Properties=species:S:1:pos:R:3 gdb_116224=T pbc="F F F"
O       -0.18880000       1.52510000       0.02190000
C        0.01120000       0.12320000       0.13590000
C       -1.34130000      -0.55010000      -0.03960000
C       -2.02650000      -0.25500000      -1.38910000
C       -3.02010000      -1.41690000      -1.55910000
C       -2.21780000      -2.63630000      -1.07250000
C       -1.32880000      -2.08650000       0.04740000
C       -0.25940000      -2.89200000       0.65300000
O       -1.48200000      -2.65750000       1.35390000
H        0.65690000       1.96230000       0.15620000
H        0.71130000      -0.24360000      -0.63350000
H        0.43410000      -0.13350000       1.11970000
H       -1.99400000      -0.19690000       0.76890000
H       -2.49210000       0.73170000      -1.41090000
H       -1.28140000      -0.28080000      -2.19590000
H       -3.89290000      -1.25820000      -0.91460000
H       -3.38590000      -1.52520000      -2.58360000
H       -2.83030000      -3.46470000      -0.70850000
H       -1.59000000      -3.01860000      -1.88680000
H       -0.10390000      -3.91540000       0.30920000
H        0.62380000      -2.41860000       1.07920000
