17
Properties=species:S:1:pos:R:3 gdb_6645=T pbc="F F F"
C       -0.00790000       1.44380000      -0.17620000
C       -0.01390000      -0.03170000       0.10340000
N       -0.04220000      -0.49270000       1.28390000
O        0.01540000      -0.72530000      -1.07210000
C        0.01500000      -2.14560000      -1.01390000
C        0.05040000      -2.64960000      -2.45990000
C        0.05310000      -4.10470000      -2.52540000
C        0.05450000      -5.30590000      -2.54760000
H        0.88710000       1.71810000      -0.74330000
H       -0.87420000       1.71700000      -0.78670000
H       -0.03150000       1.99290000       0.76380000
H       -0.04210000      -1.51100000       1.31490000
H        0.89110000      -2.50820000      -0.46150000
H       -0.88620000      -2.50950000      -0.50450000
H       -0.81590000      -2.24500000      -2.99610000
H        0.94100000      -2.24360000      -2.95360000
H        0.05570000      -6.36730000      -2.58300000
