18
Properties=species:S:1:pos:R:3 gdb_54099=T pbc="F F F"
C       -0.09660000       1.53740000      -0.21300000
C        0.01920000       0.02700000      -0.03930000
C        1.25960000      -0.73170000      -0.65270000
C        2.18240000      -0.07070000       0.40550000
C        0.90020000      -0.55370000       1.13410000
N        0.98090000      -1.85420000       0.34150000
H       -0.60090000      -2.25860000       0.06390000
H        1.84200000      -2.35650000       0.56480000
C       -1.39220000      -0.59240000      -0.26170000
O       -2.33440000       0.11400000      -0.52200000
O       -1.51320000      -1.91360000      -0.15400000
H        0.84600000       2.06640000      -0.07580000
H       -0.48120000       1.76570000      -1.20930000
H       -0.82490000       1.93550000       0.49660000
H        1.45950000      -0.94570000      -1.70350000
H        3.08510000      -0.64140000       0.64390000
H        2.40130000       0.99310000       0.34350000
H        0.67410000      -0.55670000       2.20130000
