17
Properties=species:S:1:pos:R:3 gdb_43968=T pbc="F F F"
O       -0.03030000       0.06850000      -0.28520000
C       -0.01420000       1.22760000       0.02640000
C       -1.16460000       2.25750000       0.24690000
C       -0.10310000       3.34280000      -0.02790000
C        0.94110000       3.30430000       1.03280000
C        1.05570000       2.27330000      -0.07280000
C        1.93220000       2.55700000      -1.28230000
C        1.24000000       3.77260000      -1.89920000
C        0.13810000       4.16420000      -1.24380000
H       -1.91730000       2.13850000      -0.53640000
H       -1.65870000       2.29590000       1.22130000
H        1.70030000       4.07850000       1.00200000
H        0.67230000       2.97950000       2.03390000
H        2.97710000       2.77000000      -1.02660000
H        1.94640000       1.70540000      -1.97260000
H        1.64290000       4.27390000      -2.77410000
H       -0.49130000       4.99680000      -1.53760000
