17
Properties=species:S:1:pos:R:3 gdb_79336=T pbc="F F F"
C        0.03850000       1.44980000      -0.08150000
C       -0.01210000      -0.04100000      -0.02740000
O        1.02830000      -0.72750000      -0.73140000
C        0.68850000      -2.06200000      -0.35550000
O        0.57080000      -2.03480000       1.05400000
C       -0.31660000      -0.92910000       1.15280000
C       -1.24200000      -0.94860000      -0.05530000
C       -0.77790000      -2.16590000      -0.85350000
O       -0.90730000      -2.06340000      -2.24840000
H        1.00280000       1.81660000       0.28320000
H       -0.10510000       1.81520000      -1.10360000
H       -0.75090000       1.87620000       0.54360000
H        1.43380000      -2.77610000      -0.69410000
H       -0.55770000      -0.61910000       2.15920000
H       -2.26040000      -0.58730000      -0.04830000
H       -1.25180000      -3.09840000      -0.54150000
H       -0.34770000      -1.32350000      -2.51730000
