16
Properties=species:S:1:pos:R:3 gdb_21182=T pbc="F F F"
C       -0.08950000       1.42220000       0.00100000
N       -0.12160000      -0.03330000       0.04550000
C        0.61620000      -0.64390000       1.04450000
C        1.29550000      -0.16240000       2.14800000
N        1.78370000      -1.22430000       2.84840000
N        1.46130000      -2.32770000       2.25220000
N        0.73460000      -1.99190000       1.14410000
C        0.19990000      -3.01070000       0.27340000
H        0.92270000       1.83410000      -0.12620000
H       -0.71650000       1.76530000      -0.82460000
H       -0.50560000       1.82080000       0.93100000
H       -0.00180000      -0.45910000      -0.86400000
H        1.45140000       0.85400000       2.46790000
H       -0.87490000      -2.86400000       0.12880000
H        0.69650000      -3.00700000      -0.70410000
H        0.37720000      -3.97250000       0.75460000
