15
Properties=species:S:1:pos:R:3 gdb_33722=T pbc="F F F"
N        0.02100000      -1.08930000      -0.01010000
C        0.00270000       0.06660000       0.00050000
C       -0.02000000       1.50580000       0.01190000
C       -0.64640000       2.42770000       1.10700000
C       -0.04940000       3.38620000       0.02680000
C        1.21280000       2.46560000       0.00430000
C       -0.67170000       2.44450000      -1.05420000
C       -0.07180000       4.82530000       0.03830000
N       -0.08990000       5.98130000       0.04750000
H       -1.73390000       2.41000000       1.19140000
H       -0.15420000       2.42770000       2.08070000
H        1.83080000       2.46810000       0.90330000
H        1.80880000       2.48220000      -0.90930000
H       -0.20190000       2.45970000      -2.03870000
H       -1.76100000       2.42790000      -1.11400000
