15
Properties=species:S:1:pos:R:3 gdb_131590=T pbc="F F F"
O        0.03450000       1.37130000       0.00920000
C       -0.01400000      -0.03310000       0.00280000
C       -1.47080000      -0.48330000       0.01240000
O       -2.39750000       0.29440000       0.02330000
C       -1.70290000      -1.94690000       0.00780000
N       -0.69200000      -2.82340000      -0.00400000
N       -1.29120000      -4.01830000      -0.00470000
C       -2.65000000      -3.94050000       0.00630000
C       -2.95840000      -2.60170000       0.01460000
H        0.96000000       1.63140000       0.00140000
H        0.46750000      -0.47680000      -0.88370000
H        0.48180000      -0.48530000       0.87710000
H       -0.72290000      -4.84940000      -0.01270000
H       -3.26510000      -4.82620000       0.00720000
H       -3.92970000      -2.13810000       0.02430000
