23
Properties=species:S:1:pos:R:3 gdb_60540=T pbc="F F F"
C        0.37350000       1.72130000       0.16210000
C       -0.03650000       0.25530000      -0.04550000
C       -1.54430000       0.18210000      -0.22900000
C       -2.39290000      -0.79860000       0.45960000
O       -2.34090000       0.55930000       0.89830000
C        0.67210000      -0.48120000      -1.19120000
C        0.45740000      -1.98670000      -1.17540000
C        0.77800000       0.16620000      -2.55500000
C        2.01280000      -0.00850000      -1.70350000
H        1.42480000       1.80890000       0.44750000
H        0.21100000       2.32740000      -0.73600000
H       -0.23060000       2.15220000       0.96480000
H        0.19750000      -0.28120000       0.88490000
H       -1.90840000       0.58610000      -1.17630000
H       -3.33760000      -1.11250000       0.01700000
H       -1.93470000      -1.52320000       1.13200000
H       -0.60150000      -2.24650000      -1.27550000
H        0.99440000      -2.46870000      -1.99820000
H        0.82130000      -2.42690000      -0.23900000
H        0.65600000      -0.46720000      -3.42740000
H        0.40150000       1.17430000      -2.69010000
H        2.45970000       0.88200000      -1.27880000
H        2.73330000      -0.76640000      -1.99280000
