17
Properties=species:S:1:pos:R:3 gdb_109499=T pbc="F F F"
O       -0.11230000       1.53900000       0.28150000
C        0.02160000       0.13750000       0.27250000
C       -1.30950000      -0.55400000      -0.06690000
C       -1.82870000      -0.24640000      -1.46400000
O       -1.61400000       0.77320000      -2.07730000
C       -2.61740000      -1.44860000      -1.98510000
C       -2.11630000      -2.65450000      -1.16960000
C       -1.31080000      -2.08080000       0.00840000
O       -0.74450000      -2.73590000       0.84310000
H       -0.43750000       1.78490000      -0.59540000
H        0.79090000      -0.19800000      -0.44110000
H        0.34230000      -0.17580000       1.26920000
H       -2.06860000      -0.19400000       0.64630000
H       -3.68010000      -1.25030000      -1.79820000
H       -2.49670000      -1.54170000      -3.06620000
H       -2.91410000      -3.29840000      -0.79000000
H       -1.44590000      -3.29870000      -1.74860000
