21
Properties=species:S:1:pos:R:3 gdb_92089=T pbc="F F F"
O        0.14540000       1.34660000       0.25950000
C        0.00720000      -0.05080000       0.04000000
C       -1.47610000      -0.42560000      -0.01190000
C       -2.16900000      -0.09620000      -1.32380000
C       -2.16100000       1.29400000      -1.90160000
C       -1.34830000       0.20340000      -2.56380000
C        0.17670000       0.23580000      -2.48620000
C        0.74230000      -0.45640000      -1.24350000
O        2.11560000      -0.06010000      -1.15080000
H        1.06100000       1.55450000       0.02890000
H        0.46910000      -0.60010000       0.88130000
H       -1.54300000      -1.50820000       0.15750000
H       -1.98470000       0.05400000       0.83270000
H       -3.07840000      -0.66820000      -1.48610000
H       -3.05570000       1.64530000      -2.40470000
H       -1.61240000       2.05240000      -1.35510000
H       -1.74490000      -0.18060000      -3.49820000
H        0.61040000      -0.24080000      -3.37000000
H        0.54060000       1.26820000      -2.48490000
H        0.66400000      -1.54850000      -1.35870000
H        2.54110000      -0.61050000      -0.48430000
