13
Properties=species:S:1:pos:R:3 gdb_131704=T pbc="F F F"
O        0.16110000       1.39050000      -0.04280000
C        0.05710000       0.00250000      -0.12430000
C       -1.37840000      -0.45970000      -0.05510000
N       -2.32690000       0.39510000       0.06480000
C       -3.63630000      -0.09160000       0.12390000
O       -4.61080000       0.61170000       0.23630000
C       -3.74100000      -1.57060000       0.03600000
N       -2.76350000      -2.38790000      -0.08350000
O       -1.48860000      -1.79430000      -0.13280000
H       -0.74190000       1.73410000       0.04160000
H        0.48660000      -0.37900000      -1.06400000
H        0.60730000      -0.49120000       0.69220000
H       -4.72550000      -2.02850000       0.07420000
