16
Properties=species:S:1:pos:R:3 gdb_41061=T pbc="F F F"
C        0.02360000       1.53810000      -0.17180000
O        1.44060000       1.52330000       0.21050000
C        1.31480000       0.15310000       0.58360000
C        0.79330000      -0.30500000       1.97540000
C       -0.23640000      -1.03950000       1.09810000
N        0.58140000      -1.97610000       0.18270000
C        1.72950000      -1.07030000      -0.22080000
C        0.45730000      -1.07600000      -0.99760000
C       -0.09560000       0.00690000      -0.05040000
H       -0.57760000       2.11680000       0.53870000
H       -0.11180000       1.94410000      -1.17880000
H        1.43860000      -0.89970000       2.62550000
H        0.35150000       0.52770000       2.52790000
H       -1.14300000      -1.51920000       1.46770000
H        2.69010000      -1.54150000      -0.39310000
H        0.19950000      -1.43440000      -1.98730000
