14
Properties=species:S:1:pos:R:3 gdb_126486=T pbc="F F F"
C        0.00600000       1.48140000      -0.30680000
C       -0.04760000      -0.00440000       0.09060000
C       -1.43440000      -0.56110000       0.05910000
N       -2.10030000      -0.89120000       1.13190000
O       -3.32420000      -1.34250000       0.70270000
N       -3.43290000      -1.29960000      -0.64190000
C       -2.28590000      -0.82220000      -1.06590000
C       -2.00000000      -0.62760000      -2.44350000
N       -1.71180000      -0.44800000      -3.54890000
H        1.03740000       1.84050000      -0.26570000
H       -0.36320000       1.63610000      -1.32470000
H       -0.59650000       2.08960000       0.37350000
H        0.58070000      -0.59060000      -0.58960000
H        0.34740000      -0.14460000       1.10000000
