17
Properties=species:S:1:pos:R:3 gdb_17577=T pbc="F F F"
O       -0.10820000       1.39010000       0.07340000
C        0.05150000       0.01070000       0.08650000
C        0.86300000      -0.81540000      -0.98920000
C        0.67830000      -1.91220000       0.09870000
C        0.87750000      -0.77620000       1.14230000
N       -0.79560000      -2.16820000      -0.04880000
C       -1.64410000      -1.72620000       1.07380000
C       -1.27330000      -0.76010000       0.01110000
H        0.76330000       1.79790000       0.05280000
H        0.39030000      -0.99820000      -1.95630000
H        1.89670000      -0.47910000      -1.10680000
H        1.26690000      -2.82680000       0.11780000
H        1.91910000      -0.44740000       1.16080000
H        0.51440000      -0.87670000       2.16470000
H       -2.64110000      -2.15700000       1.03630000
H       -1.24340000      -1.64260000       2.07710000
H       -1.99700000      -0.43060000      -0.72960000
