22
Properties=species:S:1:pos:R:3 gdb_102091=T pbc="F F F"
C        0.77690000      -3.36410000      -0.95430000
C        1.67460000      -2.15640000      -1.23880000
N        0.97110000      -0.88120000      -1.31780000
C        1.12900000       0.05540000      -0.33420000
O        0.53750000       1.11220000      -0.26600000
C       -0.00260000      -0.62560000      -2.36460000
C       -1.45130000      -0.79540000      -1.94280000
C        0.32570000       0.47960000      -3.33480000
C        0.40110000      -0.95840000      -3.78250000
H        0.22610000      -3.23220000      -0.01810000
H        0.05390000      -3.52190000      -1.75930000
H        1.38660000      -4.26950000      -0.87120000
H        2.42170000      -2.05930000      -0.44450000
H        2.23090000      -2.32680000      -2.16790000
H        1.88300000      -0.25820000       0.41600000
H       -1.68030000      -0.10700000      -1.12510000
H       -2.12120000      -0.56950000      -2.77780000
H       -1.65950000      -1.81710000      -1.61020000
H       -0.49300000       1.09770000      -3.68520000
H        1.25780000       1.01100000      -3.18820000
H        1.38490000      -1.37630000      -3.96290000
H       -0.37060000      -1.34520000      -4.43930000
