16
Properties=species:S:1:pos:R:3 gdb_22808=T pbc="F F F"
O        0.02510000       1.32850000       0.14110000
N        0.03930000      -0.04720000       0.08910000
C       -1.11570000      -0.60530000       0.02960000
C       -1.12970000      -2.11610000      -0.03120000
C       -2.19660000      -2.60390000      -1.01360000
O       -3.46750000      -2.10420000      -0.63540000
C       -3.55440000      -0.70160000      -0.76250000
C       -2.44740000       0.09520000      -0.05410000
O       -2.65810000       1.21930000       0.33490000
H        0.96580000       1.54150000       0.12640000
H       -0.13360000      -2.47940000      -0.29860000
H       -1.37980000      -2.51890000       0.95890000
H       -1.94920000      -2.29410000      -2.04270000
H       -2.27420000      -3.69400000      -0.99510000
H       -3.52330000      -0.39980000      -1.82640000
H       -4.51740000      -0.38770000      -0.35430000
