20
Properties=species:S:1:pos:R:3 gdb_66130=T pbc="F F F"
C        0.09600000       1.60660000       0.22950000
C        0.01380000       0.07650000       0.09670000
C        0.69570000      -0.47170000      -1.18270000
C        1.24830000      -1.87070000      -0.81790000
C        1.49510000      -1.79760000       0.67720000
N        2.21720000      -0.56910000       1.08710000
C        0.74840000      -0.64560000       1.23280000
C       -1.45080000      -0.33400000       0.17930000
O       -2.06120000      -0.94620000      -0.65850000
H        1.14320000       1.89980000       0.34060000
H       -0.31580000       2.10430000      -0.65430000
H       -0.45510000       1.96690000       1.10590000
H       -0.01240000      -0.51370000      -2.01220000
H        1.51470000       0.19450000      -1.45940000
H        0.49990000      -2.64570000      -1.01600000
H        2.14950000      -2.12110000      -1.38580000
H        1.64900000      -2.70550000       1.25190000
H        2.64690000      -0.72180000       1.99630000
H        0.31720000      -0.65420000       2.23010000
H       -1.95500000      -0.00680000       1.12080000
