20
Properties=species:S:1:pos:R:3 gdb_15598=T pbc="F F F"
C       -0.42040000       1.46480000      -0.01440000
C        0.02710000       0.00180000      -0.04500000
C        1.04020000      -0.34910000      -1.14910000
C        1.58560000      -1.71440000      -0.71480000
C        1.76950000      -1.56010000       0.80890000
C        0.68230000      -0.54620000       1.27830000
C        1.30200000       0.54930000       2.11650000
O        0.89680000       0.91480000       3.19010000
H        0.42850000       2.14870000       0.09390000
H       -0.93530000       1.72710000      -0.94420000
H       -1.10780000       1.65690000       0.81530000
H       -0.86400000      -0.61630000      -0.21330000
H        0.58540000      -0.35640000      -2.14450000
H        1.84960000       0.39350000      -1.16750000
H        0.84470000      -2.49390000      -0.92970000
H        2.51120000      -1.99810000      -1.22340000
H        1.70200000      -2.50780000       1.34830000
H        2.76750000      -1.15270000       1.01650000
H       -0.08040000      -1.01680000       1.90340000
H        2.20950000       1.01780000       1.66330000
