20
Properties=species:S:1:pos:R:3 gdb_14100=T pbc="F F F"
C       -0.01500000       1.56030000      -0.10600000
C       -0.03130000       0.06160000       0.04390000
O        1.22920000      -0.61860000      -0.10820000
C        0.60470000      -0.64320000       1.16350000
C        1.19200000      -0.06970000       2.45560000
C        0.36030000      -1.13810000       3.22550000
C        0.14460000      -1.91640000       1.88940000
C       -1.21760000      -2.51830000       1.58260000
H        0.82280000       2.00000000       0.44090000
H        0.08200000       1.83950000      -1.16040000
H       -0.94760000       1.99500000       0.27090000
H       -0.85690000      -0.44380000      -0.46130000
H        2.26860000      -0.25300000       2.51860000
H        1.00060000       0.98220000       2.68090000
H        0.86450000      -1.67170000       4.03310000
H       -0.57850000      -0.72750000       3.60840000
H        0.92650000      -2.67740000       1.77650000
H       -2.01320000      -1.77300000       1.69200000
H       -1.25800000      -2.90770000       0.55940000
H       -1.44250000      -3.34870000       2.26070000
