12
Properties=species:S:1:pos:R:3 gdb_1400=T pbc="F F F"
N       -0.08650000       1.49610000       0.07670000
C        0.01570000       0.04740000       0.01740000
C        0.69680000      -0.54500000      -1.26220000
C        0.00010000      -0.09640000      -2.46280000
N       -0.57890000       0.29150000      -3.38450000
C        0.74350000      -0.44990000       1.19540000
N        1.34430000      -0.85740000       2.09340000
H        0.82980000       1.93010000       0.01910000
H       -0.64200000       1.83470000      -0.70300000
H       -1.00230000      -0.35680000       0.06660000
H        1.74160000      -0.21970000      -1.30520000
H        0.69660000      -1.63950000      -1.22210000
