15
Properties=species:S:1:pos:R:3 gdb_55=T pbc="F F F"
C       -0.00860000       1.54270000       0.00150000
C        0.00510000       0.00700000       0.01860000
C        0.76140000      -0.51840000       1.24770000
C       -1.42010000      -0.54930000      -0.02120000
O        0.62590000      -0.48360000      -1.17660000
H        1.01360000       1.94020000       0.00280000
H       -0.51460000       1.90700000      -0.89710000
H       -0.52210000       1.94880000       0.87920000
H        0.28130000      -0.20170000       2.17940000
H        0.79970000      -1.61130000       1.23020000
H        1.79100000      -0.14070000       1.26080000
H       -1.93850000      -0.19910000      -0.91830000
H       -1.39940000      -1.64260000      -0.04560000
H       -1.98850000      -0.23060000       0.85730000
H        1.53110000      -0.15490000      -1.19210000
