18
Properties=species:S:1:pos:R:3 gdb_35821=T pbc="F F F"
N       -0.15820000      -1.13070000      -0.29370000
C       -0.09910000       0.01140000      -0.13070000
C       -0.04310000       1.47500000       0.01290000
N       -0.68760000       1.92740000       1.26270000
C        0.38810000       2.25640000       2.21310000
C        1.58030000       2.78030000       1.38400000
C        2.91840000       2.01900000       1.55470000
N        2.45420000       1.05660000       0.53140000
C        1.42950000       2.00080000       0.05140000
H       -0.58180000       1.89590000      -0.84270000
H       -1.22910000       2.75910000       1.05830000
H        0.01920000       2.97120000       2.95250000
H        0.67940000       1.34460000       2.74700000
H        1.62360000       3.86890000       1.33690000
H        3.78200000       2.62610000       1.25200000
H        3.12440000       1.57570000       2.53590000
H        3.13400000       0.73310000      -0.14530000
H        1.68450000       2.54670000      -0.86440000
