20
Properties=species:S:1:pos:R:3 gdb_13710=T pbc="F F F"
C       -0.35840000       1.37410000       0.65510000
C        0.03570000      -0.03470000       0.26770000
C        1.42830000      -0.32090000      -0.26390000
C        1.03180000      -0.83150000       1.08490000
O        1.67350000      -0.24500000       2.17570000
C        0.94130000      -0.32680000       3.39280000
C        1.71370000       0.49700000       4.41190000
O        1.87410000       1.83410000       3.97750000
H        0.40780000       1.84270000       1.27830000
H       -0.50680000       2.00090000      -0.23090000
H       -1.29370000       1.38110000       1.22520000
H       -0.76260000      -0.62280000      -0.17830000
H        1.55870000      -1.02660000      -1.07660000
H        2.12920000       0.50770000      -0.26660000
H        0.85240000      -1.90060000       1.20600000
H       -0.06870000       0.08360000       3.25750000
H        0.85090000      -1.37390000       3.72300000
H        1.16360000       0.52700000       5.35790000
H        2.68720000       0.01770000       4.60110000
H        2.26830000       1.77380000       3.09960000
