20
Properties=species:S:1:pos:R:3 gdb_107353=T pbc="F F F"
C       -0.26150000       1.51250000       0.00930000
C        0.08560000       0.01880000       0.06100000
C        0.76260000      -0.48960000      -1.19030000
C       -0.01950000      -0.93070000      -2.41070000
C        0.78490000      -1.94100000      -1.61280000
C        2.19400000      -2.26850000      -2.06870000
C        2.93320000      -0.91800000      -2.05580000
O        4.03470000      -0.68250000      -2.49720000
N        2.09350000      -0.00530000      -1.45770000
H        0.63760000       2.13200000      -0.08130000
H       -0.91090000       1.73780000      -0.84280000
H       -0.77900000       1.82480000       0.92100000
H        0.73500000      -0.18160000       0.92230000
H       -0.83090000      -0.56290000       0.21440000
H       -1.09970000      -0.99140000      -2.32680000
H        0.34300000      -0.62830000      -3.38830000
H        0.23750000      -2.67220000      -1.02950000
H        2.69890000      -2.95910000      -1.38510000
H        2.25790000      -2.70170000      -3.07090000
H        2.31020000       0.97680000      -1.53440000
