20
Properties=species:S:1:pos:R:3 gdb_121316=T pbc="F F F"
C        0.00440000       1.51800000       0.02830000
C        0.08670000      -0.01050000       0.03260000
C        0.68990000      -0.55590000      -1.26940000
N        0.78460000      -2.00240000      -1.32470000
C        1.68600000      -2.79390000      -0.51440000
C        1.33480000      -4.20900000      -1.01110000
O        0.03040000      -4.08660000      -1.58850000
C       -0.23830000      -2.76600000      -1.83390000
O       -1.22360000      -2.38740000      -2.40910000
H        0.99630000       1.97030000      -0.08390000
H       -0.61920000       1.87770000      -0.79710000
H       -0.42790000       1.89340000       0.96020000
H        0.68630000      -0.34400000       0.88890000
H       -0.91310000      -0.44150000       0.15830000
H        0.06730000      -0.25760000      -2.11760000
H        1.69150000      -0.13520000      -1.42700000
H        2.73480000      -2.53810000      -0.69930000
H        1.49150000      -2.67490000       0.56120000
H        2.03360000      -4.55000000      -1.78330000
H        1.29570000      -4.95150000      -0.21210000
