16
Properties=species:S:1:pos:R:3 gdb_14824=T pbc="F F F"
O       -0.59270000       0.74770000       0.78630000
C       -0.03400000       1.13950000      -0.20750000
C        1.19540000       2.00350000      -0.23240000
C        0.89810000       3.45510000      -0.75150000
C        1.06350000       3.98700000       0.69850000
C        1.64700000       2.62100000       1.13050000
C        1.15800000       2.02740000       2.43400000
O        0.55050000       2.65880000       3.26090000
H       -0.42680000       0.88770000      -1.21940000
H        1.96300000       1.47280000      -0.80660000
H        1.66800000       3.80970000      -1.43940000
H       -0.07830000       3.60440000      -1.21990000
H        1.70810000       4.85790000       0.82520000
H        0.11410000       4.17970000       1.20180000
H        2.74320000       2.62370000       1.18110000
H        1.45930000       0.97380000       2.61480000
