18
Properties=species:S:1:pos:R:3 gdb_112060=T pbc="F F F"
C       -0.06230000       1.60740000      -0.03020000
C       -0.00250000       0.08210000      -0.14100000
C       -1.37850000      -0.56740000       0.02780000
N       -2.30120000      -0.17020000      -1.05170000
C       -2.74930000      -1.23730000      -1.55940000
O       -2.36350000      -2.44170000      -1.07370000
C       -1.40960000      -2.14650000      -0.01020000
C       -0.14900000      -2.82030000      -0.28330000
C        0.89150000      -3.38720000      -0.48180000
H        0.93010000       2.04670000      -0.16820000
H       -0.73390000       2.02420000      -0.78460000
H       -0.43050000       1.91840000       0.95420000
H        0.40970000      -0.21250000      -1.11230000
H        0.67240000      -0.32680000       0.61960000
H       -1.80660000      -0.23050000       0.97990000
H       -3.44970000      -1.29900000      -2.38530000
H       -1.83850000      -2.54630000       0.91390000
H        1.81130000      -3.88680000      -0.66310000
