25
Properties=species:S:1:pos:R:3 gdb_57351=T pbc="F F F"
C       -0.02160000       1.52230000      -0.10990000
C       -0.00370000      -0.01800000      -0.02110000
C        0.81910000      -0.40500000       1.22560000
C       -1.44980000      -0.52840000       0.12340000
C        0.66110000      -0.62790000      -1.29100000
C        0.83300000      -2.14500000      -1.24580000
C        0.15030000      -0.12140000      -2.67200000
C        1.56840000       0.45150000      -2.83680000
O        1.96590000      -0.00830000      -1.53110000
H        0.98770000       1.91340000      -0.25720000
H       -0.65650000       1.88670000      -0.92320000
H       -0.41860000       1.94300000       0.81960000
H        0.44380000       0.12690000       2.10610000
H        0.76280000      -1.47520000       1.44350000
H        1.87120000      -0.13680000       1.09080000
H       -2.04700000      -0.30740000      -0.76840000
H       -1.49230000      -1.60710000       0.29950000
H       -1.93760000      -0.03960000       0.97340000
H       -0.12890000      -2.65810000      -1.15210000
H        1.30830000      -2.48580000      -2.17010000
H        1.47240000      -2.44790000      -0.41370000
H       -0.12310000      -0.91330000      -3.37150000
H       -0.65000000       0.61700000      -2.64530000
H        2.17430000      -0.00170000      -3.63140000
H        1.63510000       1.54280000      -2.92350000
