22
Properties=species:S:1:pos:R:3 gdb_99748=T pbc="F F F"
C        0.30590000      -0.59480000       1.20310000
C       -0.08820000      -0.00020000      -0.15480000
C        0.82520000      -0.36940000      -1.34470000
N        2.22760000       0.06940000      -1.22060000
H        2.44400000      -1.80210000      -0.65810000
C        2.90980000      -0.02600000      -2.51600000
C        2.41700000       1.40690000      -0.66210000
C        0.78820000      -1.90380000      -1.49410000
O       -0.13060000      -2.49760000      -1.98880000
O        1.85420000      -2.52580000      -0.95880000
H        0.30960000      -1.68820000       1.17580000
H        1.29920000      -0.27080000       1.52840000
H       -0.41040000      -0.28510000       1.96970000
H       -1.08580000      -0.35760000      -0.42870000
H       -0.16280000       1.08980000      -0.08700000
H        0.35980000       0.04440000      -2.25360000
H        2.49530000       0.67870000      -3.25710000
H        3.97290000       0.19590000      -2.38760000
H        2.82050000      -1.03730000      -2.92020000
H        2.01950000       1.47160000       0.35090000
H        3.48930000       1.61680000      -0.61400000
H        1.94660000       2.19600000      -1.27380000
