19
Properties=species:S:1:pos:R:3 gdb_89699=T pbc="F F F"
O       -0.06540000       1.39980000      -0.02630000
C       -0.02780000      -0.01690000       0.01340000
C        0.49240000      -0.60970000       1.36600000
C       -0.79700000      -1.33390000       1.83370000
C       -1.23790000      -2.02860000       0.49920000
C       -1.46210000      -0.56340000       0.03790000
C       -1.89320000      -0.26540000       1.50010000
C       -0.75850000      -2.03280000       3.09260000
C       -0.72720000      -2.61790000       4.14350000
H        0.83850000       1.72570000       0.02190000
H        0.53520000      -0.40880000      -0.84560000
H        1.32790000      -1.30430000       1.24470000
H        0.79110000       0.18470000       2.05540000
H       -0.49220000      -2.63690000      -0.02180000
H       -2.17040000      -2.58430000       0.61100000
H       -2.09240000      -0.31280000      -0.81390000
H       -2.89650000      -0.62930000       1.72780000
H       -1.74830000       0.74710000       1.88000000
H       -0.70150000      -3.13300000       5.07150000
