14
Properties=species:S:1:pos:R:3 gdb_44732=T pbc="F F F"
O       -0.43900000       0.21050000       0.25670000
C       -0.14300000       1.30860000      -0.07360000
O       -0.88510000       2.19830000      -0.82670000
C        0.17550000       3.19950000      -0.79530000
C       -0.00510000       4.18940000       0.37240000
C        0.91260000       3.27800000       1.26690000
C        0.38590000       2.80030000       2.53400000
N       -0.04310000       2.43890000       3.54450000
C        1.04540000       2.26160000       0.07600000
H        0.42420000       3.55090000      -1.79410000
H        0.42240000       5.17850000       0.20290000
H       -1.03820000       4.28820000       0.70540000
H        1.87600000       3.75910000       1.44960000
H        2.03500000       1.87880000      -0.16090000
