18
Properties=species:S:1:pos:R:3 gdb_36737=T pbc="F F F"
N        0.00690000      -1.14650000      -0.08210000
C       -0.00750000       0.00760000      -0.02550000
C       -0.00030000       1.46610000       0.04780000
C        1.42620000       2.04840000       0.07790000
C        1.40680000       3.57220000       0.13470000
C        2.80040000       4.23020000       0.06520000
O        2.57660000       5.39260000      -0.71530000
C        1.61640000       5.00190000      -1.65890000
O        0.72550000       4.11540000      -1.00220000
H       -0.53740000       1.87200000      -0.81520000
H       -0.55650000       1.77320000       0.94150000
H        1.96730000       1.65920000       0.94810000
H        1.96990000       1.72380000      -0.81560000
H        0.87140000       3.90290000       1.03610000
H        3.19240000       4.53410000       1.03730000
H        3.52580000       3.55980000      -0.42270000
H        1.07160000       5.88690000      -2.00080000
H        2.08900000       4.49090000      -2.51700000
