14
Properties=species:S:1:pos:R:3 gdb_125200=T pbc="F F F"
C       -0.02420000       1.54280000       0.09950000
C        0.00730000       0.06210000      -0.07720000
C       -0.00440000      -0.78400000      -1.15980000
O       -0.04530000      -0.83460000      -2.52500000
C       -0.01790000      -2.19800000      -2.76170000
N        0.03380000      -2.98520000      -1.74160000
C        0.04410000      -2.09330000      -0.67110000
N        0.08630000      -2.14650000       0.65510000
N        0.06240000      -0.82560000       0.97600000
H        0.87380000       1.91160000       0.60790000
H       -0.07840000       2.03030000      -0.87580000
H       -0.89430000       1.86460000       0.68280000
H       -0.04310000      -2.47570000      -3.80470000
H        0.08580000      -0.57770000       1.95130000
