15
Properties=species:S:1:pos:R:3 gdb_29328=T pbc="F F F"
N        0.08740000       1.43000000       0.08360000
C        0.02290000       0.02080000       0.00420000
C       -1.07490000      -0.81910000       0.01860000
N       -0.63520000      -2.11030000      -0.00040000
C        0.75330000      -2.12380000      -0.04100000
C        1.51190000      -3.30370000      -0.05850000
N        2.15980000      -4.26860000      -0.06770000
C        1.18350000      -0.79880000      -0.03170000
N        2.48190000      -0.30730000      -0.10460000
H        0.53750000       1.82980000      -0.73450000
H       -0.82950000       1.84960000       0.17490000
H       -2.12750000      -0.58650000       0.04850000
H       -1.21190000      -2.93160000       0.00110000
H        3.19330000      -0.98930000       0.12350000
H        2.60060000       0.53720000       0.44260000
