16
Properties=species:S:1:pos:R:3 gdb_6183=T pbc="F F F"
C       -0.03100000       1.55010000       0.03050000
C       -0.01710000       0.01730000      -0.00330000
O       -1.35520000      -0.48890000      -0.03770000
C        0.73820000      -0.56070000      -1.21620000
C        1.96720000      -1.28230000      -0.64480000
O        2.86870000      -1.76960000      -1.28350000
C        1.82730000      -1.26090000       0.83380000
C        0.74530000      -0.56050000       1.18160000
H        0.98340000       1.95790000      -0.01140000
H       -0.60140000       1.93380000      -0.82040000
H       -0.49940000       1.91630000       0.95240000
H       -1.84480000      -0.09110000       0.69110000
H        0.10210000      -1.28780000      -1.72830000
H        1.04110000       0.19130000      -1.94850000
H        2.53060000      -1.75730000       1.49060000
H        0.40180000      -0.38630000       2.19770000
