13
Properties=species:S:1:pos:R:3 gdb_21048=T pbc="F F F"
C        0.11550000       1.39960000      -0.06890000
N        0.09490000      -0.03940000      -0.01740000
N        0.17670000      -0.80800000      -1.18380000
C        0.12780000      -2.01360000      -0.72870000
N        0.25360000      -3.17530000      -1.43730000
O        0.00420000      -2.12310000       0.61320000
C       -0.02350000      -0.79650000       1.10180000
O       -0.13250000      -0.51100000       2.26160000
H        1.05280000       1.75720000      -0.50610000
H       -0.72170000       1.77720000      -0.66430000
H        0.02810000       1.76080000       0.95680000
H        0.11860000      -3.05880000      -2.43110000
H       -0.24380000      -3.96230000      -1.04650000
