22
Properties=species:S:1:pos:R:3 gdb_6418=T pbc="F F F"
C       -0.07780000       1.58540000      -0.00240000
C        0.03340000       0.05910000      -0.00740000
C        0.72620000      -0.49980000       1.24100000
O        0.05580000      -0.09520000       2.43670000
C        0.88450000      -2.02470000       1.19540000
C        1.75210000      -2.56870000       2.33830000
C        1.75310000      -4.09560000       2.40060000
O        3.08220000      -2.05560000       2.25860000
H        0.91450000       2.04980000      -0.00630000
H       -0.62090000       1.94780000      -0.88040000
H       -0.59870000       1.93090000       0.89440000
H       -0.96870000      -0.39010000      -0.08520000
H        0.58340000      -0.27600000      -0.89590000
H        1.72530000      -0.05770000       1.33080000
H       -0.84320000      -0.44160000       2.39460000
H       -0.11080000      -2.49180000       1.23210000
H        1.32880000      -2.32320000       0.23460000
H        1.36340000      -2.16340000       3.27860000
H        2.11850000      -4.52540000       1.45870000
H        2.40430000      -4.44130000       3.20810000
H        0.74570000      -4.48820000       2.57400000
H        3.49460000      -2.43890000       1.47600000
