15
Properties=species:S:1:pos:R:3 gdb_130949=T pbc="F F F"
O       -0.29750000       0.01740000      -0.38630000
C        0.00440000       1.12540000      -0.03000000
C        1.35650000       1.76730000      -0.26200000
C        1.21980000       3.11310000      -1.00970000
C        2.53020000       3.81840000      -1.15940000
N        2.83580000       4.88100000      -0.46110000
O        4.09860000       5.23620000      -0.84230000
N        4.58880000       4.38690000      -1.79180000
C        3.64410000       3.51330000      -1.99690000
H       -0.72290000       1.77410000       0.51240000
H        1.81350000       1.95460000       0.71900000
H        1.98940000       1.06180000      -0.80700000
H        0.78660000       2.93660000      -2.00060000
H        0.53520000       3.77290000      -0.46830000
H        3.77090000       2.71670000      -2.71390000
