14
Properties=species:S:1:pos:R:3 gdb_130996=T pbc="F F F"
O       -0.17430000       0.21600000       0.52790000
C        0.07800000       1.13840000      -0.19940000
C        1.39340000       1.89240000      -0.15020000
O        1.33580000       2.90700000      -1.14420000
C        2.41760000       3.68290000      -1.25130000
N        3.49950000       3.55000000      -0.49800000
N        4.28370000       4.55120000      -0.99100000
C        3.64400000       5.20150000      -1.97780000
N        2.44890000       4.67830000      -2.17550000
H       -0.63240000       1.51400000      -0.96750000
H        1.54220000       2.32350000       0.84810000
H        2.22810000       1.20400000      -0.33430000
H        5.19990000       4.70430000      -0.60450000
H        4.07300000       6.03320000      -2.51640000
