17
Properties=species:S:1:pos:R:3 gdb_73471=T pbc="F F F"
C       -0.02410000       1.47420000      -0.04320000
C        0.02390000      -0.02620000       0.01140000
O       -1.18570000      -0.58680000      -0.43330000
C       -1.23230000      -2.01530000      -0.41650000
C        0.08890000      -2.57140000       0.09760000
O        0.33210000      -2.04140000       1.39300000
C        0.77800000      -0.72840000       1.12680000
C        1.31620000      -0.76280000      -0.29370000
O        1.13760000      -2.09290000      -0.73260000
H        0.91930000       1.90480000       0.30530000
H       -0.20010000       1.81330000      -1.06880000
H       -0.83150000       1.85340000       0.59080000
H       -2.05300000      -2.34020000       0.23570000
H       -1.42000000      -2.38060000      -1.43440000
H        0.11710000      -3.66180000       0.13470000
H        1.22130000      -0.23830000       1.98440000
H        2.22420000      -0.30230000      -0.66220000
