17
Properties=species:S:1:pos:R:3 gdb_1726=T pbc="F F F"
C       -0.02050000       1.42910000       0.05370000
O       -0.15200000       0.03260000      -0.11040000
C        0.61390000      -0.53370000      -1.15060000
C        0.22270000      -0.03130000      -2.53600000
C        2.14660000      -0.63070000      -0.90160000
O        2.10420000      -2.06610000      -1.02460000
C        0.66160000      -2.06900000      -1.01470000
H        1.03140000       1.73350000       0.16280000
H       -0.46090000       1.99580000      -0.77810000
H       -0.55370000       1.68990000       0.97090000
H        0.46190000       1.02830000      -2.66880000
H        0.76550000      -0.59160000      -3.30280000
H       -0.85110000      -0.16750000      -2.69960000
H        2.81110000      -0.17420000      -1.64440000
H        2.44260000      -0.31100000       0.10640000
H        0.25020000      -2.41580000      -0.05900000
H        0.24290000      -2.65790000      -1.83840000
