18
Properties=species:S:1:pos:R:3 gdb_64064=T pbc="F F F"
C       -0.13980000       1.59870000      -0.00840000
C        0.03570000       0.07790000      -0.03190000
C       -1.33360000      -0.63490000       0.01580000
C        0.87710000      -0.42970000      -1.23370000
N        1.75640000      -1.44300000      -0.66310000
C        1.86320000      -1.45640000       0.69710000
O        2.59210000      -2.13740000       1.37890000
C        0.83640000      -0.40790000       1.18080000
O        0.69680000      -0.05730000       2.32020000
H        0.82490000       2.11370000      -0.05230000
H       -0.74460000       1.93440000      -0.85730000
H       -0.63880000       1.90080000       0.91600000
H       -1.94980000      -0.32510000      -0.83440000
H       -1.22080000      -1.72320000      -0.02280000
H       -1.85990000      -0.38000000       0.93970000
H        0.24780000      -0.86060000      -2.01950000
H        1.45640000       0.38810000      -1.68150000
H        2.37270000      -2.00740000      -1.22770000
