17
Properties=species:S:1:pos:R:3 gdb_83455=T pbc="F F F"
O       -0.05670000       1.42400000       0.00070000
C       -0.10040000       0.03590000      -0.04610000
C       -0.41730000      -0.77250000       1.16940000
O       -1.31600000      -0.01370000       1.99140000
C       -2.34120000      -0.07350000       0.95190000
C       -1.38850000      -0.77330000      -0.01020000
C       -1.77430000      -1.83590000      -1.01050000
C       -2.56570000      -1.29980000      -2.11640000
C       -3.22470000      -0.83720000      -3.00820000
H       -0.31320000       1.66800000       0.90090000
H        0.65710000      -0.37980000      -0.70620000
H        0.19190000      -1.52940000       1.65210000
H       -3.17500000      -0.70150000       1.28310000
H       -2.70420000       0.91880000       0.66610000
H       -0.86760000      -2.31330000      -1.40400000
H       -2.34220000      -2.63280000      -0.51040000
H       -3.80110000      -0.43270000      -3.80300000
