23
Properties=species:S:1:pos:R:3 gdb_60272=T pbc="F F F"
C        0.03670000       1.54730000      -0.04720000
C        0.01020000       0.01210000      -0.01960000
C        0.62370000      -0.56140000      -1.30380000
C        0.72620000      -0.57160000       1.21180000
C        0.07500000      -0.23520000       2.54060000
O       -1.27210000      -0.69140000       2.57150000
C       -1.54770000      -1.15710000       3.88890000
C       -0.21200000      -0.97110000       4.63730000
O        0.73940000      -0.90390000       3.58910000
H        1.06720000       1.92300000      -0.05970000
H       -0.46360000       1.92650000      -0.94450000
H       -0.46930000       1.98460000       0.81850000
H       -1.03700000      -0.31020000       0.03190000
H        1.67810000      -0.27390000      -1.39900000
H        0.57550000      -1.65530000      -1.31610000
H        0.09880000      -0.19120000      -2.19070000
H        0.75600000      -1.66470000       1.14230000
H        1.76520000      -0.21940000       1.24630000
H        0.08600000       0.85280000       2.73950000
H       -2.36170000      -0.57790000       4.34120000
H       -1.85180000      -2.20910000       3.83840000
H       -0.21410000      -0.04110000       5.22610000
H        0.04810000      -1.80460000       5.29310000
