16
Properties=species:S:1:pos:R:3 gdb_32299=T pbc="F F F"
C       -0.02560000       1.42060000      -0.04610000
N        0.04300000      -0.01660000       0.07480000
C        0.66260000      -0.64330000       1.09520000
N        1.25210000       0.01650000       2.05950000
C        1.85450000      -0.71260000       3.05250000
C        1.86440000      -2.06510000       3.07570000
N        1.23570000      -2.74540000       2.04670000
C        0.60080000      -2.12610000       1.00120000
O        0.04370000      -2.72630000       0.08950000
H        0.97610000       1.86170000      -0.10320000
H       -0.57830000       1.67300000      -0.95260000
H       -0.53160000       1.86700000       0.81760000
H       -0.37450000      -0.62910000      -0.60860000
H        2.33660000      -0.14740000       3.84140000
H        2.33070000      -2.66480000       3.84440000
H        1.22080000      -3.75540000       2.02770000
