16
Properties=species:S:1:pos:R:3 gdb_22791=T pbc="F F F"
O       -0.01810000       1.33030000       0.04040000
N        0.03110000      -0.05600000       0.03670000
C       -1.11780000      -0.61830000       0.03760000
C       -1.14500000      -2.12900000       0.01240000
C       -2.24130000      -2.66250000      -0.87290000
C       -3.25030000      -1.92440000      -1.32990000
C       -3.44000000      -0.46560000      -1.01020000
C       -2.45330000       0.08890000       0.01270000
O       -2.72690000       1.01360000       0.73810000
H        0.91500000       1.56650000      -0.00690000
H       -0.16220000      -2.49300000      -0.30470000
H       -1.28910000      -2.51110000       1.03570000
H       -2.18350000      -3.71710000      -1.12820000
H       -4.00650000      -2.37820000      -1.96520000
H       -3.32610000       0.14080000      -1.92320000
H       -4.45230000      -0.25580000      -0.64590000
