16
Properties=species:S:1:pos:R:3 gdb_86175=T pbc="F F F"
O       -0.11190000       1.45210000       0.03210000
C        0.03340000       0.04150000      -0.02400000
C       -1.36030000      -0.61470000      -0.07190000
C       -1.24420000      -1.81660000      -1.02550000
O       -2.41960000      -1.92050000      -1.80260000
C        0.00620000      -1.46970000      -1.83580000
C        0.69140000      -0.45930000      -1.29160000
C        0.33540000      -2.20260000      -3.00730000
N        0.54510000      -2.84210000      -3.95050000
H        0.73450000       1.83980000       0.27560000
H        0.60420000      -0.31330000       0.84980000
H       -1.74440000      -0.88390000       0.91280000
H       -2.04750000       0.10290000      -0.52890000
H       -1.06950000      -2.75210000      -0.47140000
H       -2.37240000      -2.72690000      -2.32780000
H        1.61700000      -0.04690000      -1.67750000
