20
Properties=species:S:1:pos:R:3 gdb_121009=T pbc="F F F"
C        0.57900000       1.44780000       0.45910000
O        0.84450000       0.06990000       0.33750000
C       -0.24130000      -0.73860000       0.72540000
C        0.19920000      -2.18890000       0.57100000
C        1.29280000      -2.63420000       1.57590000
N        0.62850000      -3.61260000       2.44900000
C       -0.54610000      -3.76570000       1.99350000
C       -1.59820000      -4.67510000       2.52900000
O       -0.92140000      -3.04370000       0.89310000
H        0.35120000       1.72870000       1.49910000
H        1.47520000       1.98270000       0.13600000
H       -0.26800000       1.75650000      -0.17330000
H       -0.52520000      -0.54770000       1.77490000
H       -1.12780000      -0.54400000       0.10040000
H        0.47770000      -2.37210000      -0.47060000
H        2.15180000      -3.10010000       1.08180000
H        1.67560000      -1.79020000       2.15870000
H       -1.21420000      -5.20790000       3.39800000
H       -2.48850000      -4.10370000       2.80990000
H       -1.90270000      -5.39380000       1.76160000
