17
Properties=species:S:1:pos:R:3 gdb_80987=T pbc="F F F"
C       -0.03860000       1.49670000       0.11950000
C       -0.03170000       0.00270000      -0.00750000
C        0.87770000      -0.69410000      -1.03530000
C        0.61550000      -2.14140000      -0.56620000
O        1.01880000      -3.17990000      -1.00830000
C       -0.33030000      -1.87050000       0.60510000
O        0.33990000      -0.72560000       1.23480000
C       -1.33810000      -0.85660000      -0.01750000
O       -2.33770000      -0.41790000       0.85060000
H        0.93630000       1.85620000       0.46270000
H       -0.25280000       1.95750000      -0.84980000
H       -0.80360000       1.82130000       0.82970000
H        0.59160000      -0.55360000      -2.08200000
H        1.92630000      -0.40900000      -0.91270000
H       -0.61370000      -2.67850000       1.27610000
H       -1.80720000      -1.09120000      -0.97650000
H       -1.91190000      -0.26070000       1.70420000
