14
Properties=species:S:1:pos:R:3 gdb_43212=T pbc="F F F"
O       -0.02440000       0.01640000      -0.42850000
C       -0.06080000       1.17080000      -0.14580000
C       -1.17770000       2.18790000       0.09680000
C       -1.51580000       2.31660000       1.60630000
O       -0.43760000       3.25900000       1.81390000
C       -0.09440000       3.26130000       0.42920000
C        1.05400000       2.25950000       0.07490000
C        2.10790000       2.01890000       1.03540000
N        2.93780000       1.81220000       1.81270000
H       -1.98350000       2.26740000      -0.63000000
H       -2.48950000       2.78100000       1.79350000
H       -1.41510000       1.41400000       2.21670000
H       -0.02900000       4.26000000      -0.00380000
H        1.47920000       2.49950000      -0.90830000
