17
Properties=species:S:1:pos:R:3 gdb_25619=T pbc="F F F"
C       -0.13960000       1.45700000      -0.01970000
C       -0.04650000       0.00640000      -0.01610000
C        0.02670000      -1.19920000      -0.01310000
C        0.13150000      -2.60010000      -0.00980000
C        1.21830000      -3.43990000      -0.01030000
C        2.65760000      -3.03560000      -0.01470000
C        0.68270000      -4.76800000      -0.00580000
C       -0.67010000      -4.63920000      -0.00270000
O       -1.03110000      -3.33560000      -0.00510000
H        0.85690000       1.91200000      -0.02890000
H       -0.67820000       1.82190000      -0.90180000
H       -0.66450000       1.82730000       0.86830000
H        3.18370000      -3.41760000       0.86770000
H        3.18080000      -3.42650000      -0.89490000
H        2.75320000      -1.94700000      -0.02020000
H        1.23990000      -5.69230000      -0.00490000
H       -1.48180000      -5.34840000       0.00110000
