14
Properties=species:S:1:pos:R:3 gdb_31302=T pbc="F F F"
C       -0.05250000       1.50600000       0.09750000
N        0.15680000       0.07400000      -0.04100000
C        0.66480000      -0.67820000       0.96600000
C        0.69540000      -2.05320000       1.10470000
O        1.37520000      -2.32570000       2.28680000
C        1.69030000      -1.12210000       2.76620000
N        1.30710000      -0.10920000       2.05140000
C        0.19530000      -3.09290000       0.31800000
N       -0.24770000      -3.91110000      -0.37820000
H        0.83420000       1.96020000       0.54170000
H       -0.20780000       1.93440000      -0.89490000
H       -0.91720000       1.75190000       0.72880000
H       -0.42720000      -0.41380000      -0.70160000
H        2.23070000      -1.09560000       3.70020000
