19
Properties=species:S:1:pos:R:3 gdb_105951=T pbc="F F F"
C       -0.00560000       1.49200000      -0.13670000
C       -0.03280000       0.00040000      -0.05770000
C        0.82820000      -1.04030000      -0.76260000
C        0.82470000      -0.95740000       0.75990000
C       -0.34470000      -1.98210000       0.80980000
C       -0.34210000      -2.06510000      -0.70970000
C       -1.21800000      -1.03530000      -0.00850000
C       -2.70040000      -0.87420000      -0.01020000
O       -3.23420000      -0.42310000      -1.25250000
H        1.02790000       1.85630000      -0.14270000
H       -0.48530000       1.86250000      -1.05200000
H       -0.51210000       1.95520000       0.71860000
H        1.64390000      -0.89600000      -1.45900000
H        1.63760000      -0.74160000       1.44120000
H       -0.64550000      -2.71770000       1.54450000
H       -0.63760000      -2.87680000      -1.36110000
H       -3.16830000      -1.84810000       0.17530000
H       -3.01050000      -0.20790000       0.81180000
H       -2.83910000       0.43280000      -1.44510000
