21
Properties=species:S:1:pos:R:3 gdb_6375=T pbc="F F F"
C       -0.01260000       1.46350000       0.30690000
N       -0.17830000       0.02380000       0.33320000
C       -1.28610000      -0.60080000      -0.16440000
O       -2.22770000       0.00790000      -0.64510000
C       -1.24760000      -2.12690000      -0.10230000
C       -2.63010000      -2.74380000       0.16620000
C       -2.60470000      -4.25940000      -0.06310000
C       -3.13180000      -2.40170000       1.57510000
H        0.85230000       1.75800000      -0.29870000
H       -0.91670000       1.88310000      -0.13570000
H        0.11360000       1.86950000       1.31690000
H        0.55830000      -0.54150000       0.72040000
H       -0.87640000      -2.47290000      -1.07620000
H       -0.52260000      -2.46990000       0.64790000
H       -3.31620000      -2.28710000      -0.55570000
H       -1.91150000      -4.75500000       0.62790000
H       -3.59600000      -4.69580000       0.09720000
H       -2.29080000      -4.50700000      -1.08290000
H       -3.19490000      -1.31940000       1.71950000
H       -4.12890000      -2.81990000       1.74660000
H       -2.46430000      -2.81320000       2.34290000
