18
Properties=species:S:1:pos:R:3 gdb_87375=T pbc="F F F"
C       -0.26920000       1.51760000       0.14120000
C       -0.09840000       0.01950000       0.15270000
N        1.21430000      -0.51160000      -0.20450000
C        0.74370000      -0.69230000       1.16910000
C        1.40690000      -0.21680000       2.46960000
O        0.93730000       1.03370000       2.91590000
C        0.83840000      -1.49080000       3.19130000
C        0.37430000      -1.99760000       1.81250000
O       -0.03480000      -3.04080000       1.38100000
H        0.63370000       2.01270000       0.49940000
H       -0.48070000       1.85810000      -0.87820000
H       -1.10190000       1.81580000       0.78450000
H       -0.96380000      -0.55400000      -0.17960000
H        1.12550000      -1.40180000      -0.69410000
H        2.50140000      -0.23540000       2.39330000
H        1.41770000       1.26860000       3.71580000
H        1.54470000      -2.13250000       3.72310000
H       -0.00260000      -1.24590000       3.84750000
