21
Properties=species:S:1:pos:R:3 gdb_39851=T pbc="F F F"
C       -0.04150000       1.44950000      -0.01870000
C        1.27380000       0.69130000      -0.00040000
C       -0.02850000      -0.04810000      -0.00960000
C       -0.51760000      -0.94190000       1.12830000
C        0.31830000      -2.22660000       0.86960000
C       -0.55370000      -2.32490000      -0.39140000
C       -1.73550000      -1.64360000       0.37180000
C       -2.08740000      -0.83970000      -0.88910000
C       -0.55670000      -0.91920000      -1.14770000
H       -0.33810000       1.97190000       0.88550000
H       -0.32340000       1.95830000      -0.93580000
H        1.87460000       0.69670000      -0.90450000
H        1.85540000       0.70230000       0.91670000
H       -0.61890000      -0.50420000       2.12170000
H        1.40360000      -2.11910000       0.78140000
H        0.07760000      -3.03320000       1.56900000
H       -0.66790000      -3.22510000      -0.99470000
H       -2.45740000      -2.19360000       0.97500000
H       -2.66470000      -1.45210000      -1.58880000
H       -2.53830000       0.15340000      -0.80090000
H       -0.12710000      -0.78740000      -2.14110000
