23
Properties=species:S:1:pos:R:3 gdb_86292=T pbc="F F F"
C       -1.32010000       0.58240000      -1.30610000
C       -0.10130000      -0.24780000      -0.93470000
C        1.31450000       0.23720000      -1.33250000
C        1.84950000      -0.35230000      -0.00420000
C        2.97200000       0.35250000       0.74130000
C        0.37730000      -0.32450000       0.56920000
C        0.03430000       0.88980000       1.42460000
C       -0.01840000      -1.60720000       1.25510000
O       -0.53960000      -1.69810000       2.33800000
H       -1.22430000       1.61910000      -0.96940000
H       -1.44950000       0.59890000      -2.39400000
H       -2.23700000       0.17100000      -0.86980000
H       -0.24010000      -1.27350000      -1.30000000
H        1.74030000      -0.13730000      -2.26720000
H        1.37640000       1.33110000      -1.33950000
H        2.13030000      -1.40040000      -0.16950000
H        2.74130000       1.40680000       0.92190000
H        3.17110000      -0.11840000       1.71020000
H        3.89810000       0.31230000       0.15710000
H        0.31740000       1.82620000       0.93650000
H       -1.03840000       0.92310000       1.63250000
H        0.54680000       0.83810000       2.38890000
H        0.21700000      -2.52290000       0.65860000
