21
Properties=species:S:1:pos:R:3 gdb_76410=T pbc="F F F"
C       -0.16440000       1.24840000      -0.47170000
C        0.13400000      -0.15460000       0.01160000
C        1.54430000      -0.65370000       0.17380000
O        2.56680000       0.26130000      -0.09640000
C        0.67690000      -0.45840000       1.40620000
C        1.01000000       0.67470000       2.36170000
C        0.09340000      -1.64620000       2.11120000
C        0.42290000      -3.05130000       1.83510000
O        0.96080000      -2.39170000       2.97970000
H        0.63910000       1.94240000      -0.22160000
H       -0.27580000       1.25740000      -1.56100000
H       -1.09690000       1.62670000      -0.03930000
H       -0.55800000      -0.90500000      -0.36490000
H        1.76120000      -1.66860000      -0.15570000
H        3.29760000       0.07650000       0.50310000
H        1.55620000       1.47680000       1.86410000
H        0.10130000       1.10090000       2.80190000
H        1.62910000       0.29690000       3.18240000
H       -0.88660000      -1.45580000       2.55740000
H       -0.31800000      -3.82350000       2.04170000
H        1.14560000      -3.30850000       1.06370000
