17
Properties=species:S:1:pos:R:3 gdb_48981=T pbc="F F F"
O       -0.05550000      -0.00270000      -0.11470000
C        0.02490000       1.18950000       0.04710000
C        1.30420000       1.96930000       0.03420000
C        2.62770000       1.15210000      -0.06620000
O        3.59710000       2.11550000      -0.49950000
C        2.88020000       3.37340000      -0.63290000
C        1.52860000       2.91150000      -1.19580000
C        2.48140000       3.81510000       0.76740000
C        1.52470000       2.97040000       1.16640000
H       -0.88740000       1.80840000       0.21100000
H        2.92120000       0.72220000       0.89690000
H        2.54020000       0.34880000      -0.80450000
H        3.49180000       4.04820000      -1.22920000
H        1.62000000       2.37400000      -2.14300000
H        0.78130000       3.70290000      -1.26540000
H        2.98350000       4.57240000       1.35500000
H        1.07290000       2.88830000       2.14720000
