14
Properties=species:S:1:pos:R:3 gdb_4886=T pbc="F F F"
C        0.08130000       1.36000000       0.32570000
N       -0.10790000       0.14320000      -0.47450000
C       -1.19330000      -0.66210000      -0.14780000
C       -1.29880000      -1.93410000       0.26930000
O       -2.63970000      -2.29500000       0.33960000
C       -3.40400000      -1.21180000      -0.02660000
O       -4.60280000      -1.20330000      -0.08400000
N       -2.50450000      -0.19600000      -0.29440000
H        0.93670000       1.91120000      -0.07150000
H       -0.79920000       2.00150000       0.23530000
H        0.24750000       1.15880000       1.39390000
H        0.73970000      -0.40780000      -0.51430000
H       -0.57430000      -2.68330000       0.53220000
H       -2.78170000       0.64950000      -0.76190000
