16
Properties=species:S:1:pos:R:3 gdb_45651=T pbc="F F F"
O       -0.16760000      -0.05950000      -0.05300000
C       -0.01590000       1.13150000       0.07020000
N       -1.05210000       2.06480000       0.23620000
C       -0.58360000       3.36740000       0.49340000
C        0.73700000       3.41070000       0.26330000
C        2.01790000       3.77060000       0.98630000
C        2.09850000       2.86010000       2.19280000
C        2.44660000       2.29400000       0.84460000
C        1.22400000       2.02870000      -0.07810000
H       -2.01850000       1.78010000       0.24860000
H       -1.25620000       4.09830000       0.92260000
H        2.61830000       4.66450000       0.88050000
H        2.95490000       3.01530000       2.84330000
H        1.19100000       2.56800000       2.71280000
H        3.43360000       1.90030000       0.63770000
H        1.57620000       1.92170000      -1.11100000
