13
Properties=species:S:1:pos:R:3 gdb_4450=T pbc="F F F"
N        0.09470000       1.39310000       0.18170000
C       -0.01730000       0.01020000       0.00990000
C       -1.06390000      -0.81180000      -0.11050000
O       -2.37590000      -0.57040000      -0.27890000
O       -0.62860000      -2.13920000      -0.16580000
C        0.74900000      -2.12970000      -0.05850000
N        1.51790000      -3.13290000       0.01480000
N        1.13340000      -0.79870000      -0.04380000
H        0.55260000       1.83960000      -0.60910000
H       -0.82210000       1.80940000       0.29400000
H       -2.87750000      -0.99700000       0.42880000
H        0.98370000      -3.99710000      -0.01880000
H        2.00610000      -0.53430000       0.38320000
