15
Properties=species:S:1:pos:R:3 gdb_50910=T pbc="F F F"
N        0.00790000       1.03730000      -0.46020000
C        0.02000000      -0.20160000      -0.25480000
O       -1.04320000      -0.77370000       0.37980000
C       -1.07050000      -2.18730000       0.41740000
C       -1.79240000      -2.60690000       1.62750000
N       -2.36630000      -2.98650000       2.55420000
C       -1.73520000      -2.77820000      -0.82690000
C       -2.61500000      -1.96920000      -1.67200000
O       -1.25500000      -2.25060000      -2.05020000
H        0.87170000       1.33020000      -0.91120000
H        0.80960000      -0.91670000      -0.51200000
H       -0.04710000      -2.58710000       0.48230000
H       -1.85690000      -3.86100000      -0.79050000
H       -3.37130000      -2.46550000      -2.27520000
H       -2.81060000      -0.93620000      -1.39960000
