18
Properties=species:S:1:pos:R:3 gdb_23470=T pbc="F F F"
O       -0.02750000       1.32170000       0.10940000
N        0.04890000      -0.08210000       0.11240000
C       -1.09900000      -0.63410000       0.00190000
C       -2.45140000       0.04770000      -0.04020000
N       -3.38240000      -0.55090000       0.92510000
C       -3.63480000      -1.97240000       0.67970000
C       -2.39820000      -2.81140000       0.34110000
N       -1.95210000      -2.73700000      -1.05690000
C       -1.11870000      -2.11710000       0.00360000
H        0.89500000       1.57090000       0.22540000
H       -2.34200000       1.11100000       0.17170000
H       -2.88050000      -0.05830000      -1.04350000
H       -2.99360000      -0.43780000       1.85650000
H       -4.12590000      -2.38180000       1.56800000
H       -4.34230000      -2.06050000      -0.15410000
H       -2.31750000      -3.77420000       0.84190000
H       -1.52800000      -3.61430000      -1.34730000
H       -0.17480000      -2.58800000       0.26060000
