13
Properties=species:S:1:pos:R:3 gdb_132073=T pbc="F F F"
F        0.00240000       0.02400000       0.00340000
C       -0.01590000       1.35430000       0.01080000
C       -1.20110000       2.01400000       0.03070000
F       -2.34790000       1.35100000       0.04290000
C       -1.27870000       3.46670000       0.03960000
N       -2.40190000       4.08250000       0.05840000
N       -0.00340000       4.06640000       0.02520000
C        1.19090000       3.40020000       0.00520000
C        1.23110000       2.04780000      -0.00260000
H       -2.27950000       5.09540000       0.06220000
H        0.00530000       5.07490000       0.03050000
H        2.07730000       4.02060000      -0.00360000
H        2.15980000       1.49720000      -0.01830000
