15
Properties=species:S:1:pos:R:3 gdb_18284=T pbc="F F F"
O       -0.21370000       1.46080000      -0.13140000
C       -0.07250000       0.08060000      -0.01240000
C       -1.34240000      -0.74180000       0.09820000
C       -2.69150000      -0.04760000       0.00220000
N       -3.10020000       0.37860000      -1.33180000
C       -2.28860000       0.31070000      -2.28950000
O       -0.99460000      -0.13650000      -2.31120000
C       -0.51750000      -0.78890000      -1.16000000
H        0.04840000       1.71110000      -1.02500000
H        0.79770000      -0.24160000       0.55710000
H       -1.30240000      -1.61860000       0.73590000
H       -3.46710000      -0.72330000       0.37760000
H       -2.71330000       0.83980000       0.64550000
H       -2.56300000       0.64490000      -3.28770000
H        0.04600000      -1.67480000      -1.42950000
