16
Properties=species:S:1:pos:R:3 gdb_112138=T pbc="F F F"
C        0.00250000       1.52800000       0.01910000
C        0.00330000      -0.00260000      -0.00190000
C       -1.39550000      -0.58650000       0.01610000
O       -1.35100000      -2.01200000      -0.05880000
C       -1.99090000      -2.53970000       1.00940000
N       -2.12400000      -3.77520000       1.20250000
C       -2.46620000      -1.38740000       1.86090000
O       -3.06280000      -1.43110000       2.89360000
O       -2.07910000      -0.25320000       1.23010000
H        1.02600000       1.90970000      -0.00970000
H       -0.53030000       1.93780000      -0.84570000
H       -0.47790000       1.90910000       0.92390000
H        0.49570000      -0.38080000      -0.90440000
H        0.54850000      -0.40830000       0.85770000
H       -2.00500000      -0.21760000      -0.81780000
H       -2.63740000      -3.91210000       2.07520000
