17
Properties=species:S:1:pos:R:3 gdb_108299=T pbc="F F F"
O       -0.02920000       1.53850000      -0.02300000
C        0.06950000       0.14310000       0.22940000
C       -1.25510000      -0.54750000       0.00800000
C       -2.37380000      -0.48000000       1.06950000
O       -2.60070000      -1.90670000       0.98610000
C       -1.54100000      -2.08190000       0.02190000
C       -2.06320000      -1.90400000      -1.40350000
N       -2.60020000      -2.70000000      -2.21990000
N       -1.73180000      -0.53050000      -1.39060000
H       -0.11030000       1.64830000      -0.97640000
H        0.83820000      -0.32690000      -0.40060000
H        0.37920000       0.03930000       1.27420000
H       -2.03080000      -0.19350000       2.07100000
H       -3.26090000       0.10670000       0.80540000
H       -0.85080000      -2.88850000       0.27010000
H       -2.90980000      -2.22540000      -3.07070000
H       -2.33440000       0.19060000      -1.77010000
