20
Properties=species:S:1:pos:R:3 gdb_126240=T pbc="F F F"
C        0.10100000       1.56460000       0.16800000
C       -0.00120000       0.03300000       0.03340000
C       -1.40160000      -0.47990000      -0.06570000
C       -2.21040000      -0.71420000      -1.17050000
N       -1.84110000      -0.56420000      -2.51670000
C       -2.88260000      -0.76830000      -3.51000000
C       -3.43080000      -1.18890000      -0.63230000
N       -3.39450000      -1.24880000       0.69990000
N       -2.16910000      -0.80610000       1.01420000
H        1.14670000       1.88350000       0.22360000
H       -0.36200000       2.06800000      -0.68670000
H       -0.41040000       1.91520000       1.06990000
H        0.54380000      -0.29300000      -0.86050000
H        0.50470000      -0.43980000       0.88480000
H       -1.33480000       0.29530000      -2.68050000
H       -3.23000000      -1.80610000      -3.46990000
H       -3.76120000      -0.11450000      -3.38040000
H       -2.46610000      -0.59490000      -4.50550000
H       -4.32260000      -1.49650000      -1.15670000
H       -1.89900000      -0.76670000       1.98240000
