14
Properties=species:S:1:pos:R:3 gdb_11937=T pbc="F F F"
O       -0.07720000       1.44840000       0.07400000
C       -0.04120000       0.07640000       0.03430000
C       -0.29500000      -0.75320000      -1.19460000
C       -1.17900000      -0.95040000       0.02510000
O       -0.49380000      -1.78150000       0.97420000
C        0.55910000      -0.79120000       1.13310000
C       -2.59220000      -0.85500000       0.04590000
C       -3.79210000      -0.76780000       0.06550000
H        0.42580000       1.79400000      -0.67090000
H       -0.77620000      -0.21160000      -2.00330000
H        0.37670000      -1.55520000      -1.49110000
H        1.55750000      -1.21320000       0.97090000
H        0.50030000      -0.31690000       2.11870000
H       -4.85100000      -0.69230000       0.08700000
