25
Properties=species:S:1:pos:R:3 gdb_94676=T pbc="F F F"
C       -0.03880000       1.55950000      -0.00470000
C        0.03600000       0.03100000       0.02250000
C        0.77840000      -0.57550000      -1.19000000
C        1.29120000      -1.94680000      -0.70860000
C        1.51780000      -1.79040000       0.79330000
C        1.65100000      -3.05680000       1.60590000
C        2.25760000      -0.53770000       1.21380000
C        0.74210000      -0.56230000       1.24790000
C        0.02090000      -0.47100000       2.57250000
H        0.96390000       2.00020000       0.02950000
H       -0.52920000       1.91390000      -0.91790000
H       -0.60490000       1.95200000       0.84640000
H       -0.99200000      -0.36180000       0.03050000
H        0.13620000      -0.65080000      -2.07210000
H        1.61810000       0.06960000      -1.47220000
H        0.52880000      -2.72010000      -0.87120000
H        2.19120000      -2.27100000      -1.24470000
H        2.53670000      -3.62650000       1.29950000
H        1.75240000      -2.85090000       2.67560000
H        0.77950000      -3.70940000       1.47210000
H        2.76370000      -0.57220000       2.17410000
H        2.77880000       0.06090000       0.47290000
H       -0.10150000       0.57240000       2.88640000
H       -0.98070000      -0.91480000       2.51240000
H        0.56540000      -0.98450000       3.37030000
