16
Properties=species:S:1:pos:R:3 gdb_72866=T pbc="F F F"
O        0.55050000       1.32260000      -0.58830000
C        0.14250000       0.08340000      -0.12380000
C        0.31160000      -1.03750000      -1.16150000
O       -1.04240000      -1.51080000      -0.94050000
C       -1.32120000      -0.47280000       0.00030000
C       -1.01020000      -0.93810000       1.46740000
C        0.43290000      -0.32580000       1.34280000
C       -1.83700000      -0.34080000       2.49930000
N       -2.49650000       0.17190000       3.29950000
H        0.40080000       1.98460000       0.09550000
H        0.44000000      -0.65230000      -2.17850000
H        1.06490000      -1.80570000      -0.95350000
H       -2.25620000       0.05850000      -0.18630000
H       -1.03600000      -2.02660000       1.54630000
H        1.26420000      -1.01380000       1.51000000
H        0.56110000       0.54290000       1.99380000
