15
Properties=species:S:1:pos:R:3 gdb_99472=T pbc="F F F"
O        0.34520000       1.04700000       0.02330000
C        0.07870000      -0.32880000      -0.01300000
C       -1.46340000      -0.61670000      -0.01510000
C       -2.08250000       0.02760000      -1.16290000
C       -2.53780000       0.59820000      -2.11790000
C       -1.68250000      -2.12460000       0.00550000
O       -1.86000000      -2.81810000      -0.96500000
C       -1.62140000      -2.80330000       1.38270000
O       -1.43810000      -2.20800000       2.41120000
H       -0.06310000       1.44090000      -0.75770000
H        0.52130000      -0.81860000      -0.89250000
H        0.51750000      -0.75890000       0.89090000
H       -1.85230000      -0.20200000       0.92150000
H       -2.97170000       1.08480000      -2.95670000
H       -1.76600000      -3.90190000       1.32270000
