21
Properties=species:S:1:pos:R:3 gdb_122653=T pbc="F F F"
C        0.09710000       1.42470000       0.14920000
C        0.14570000      -0.09740000      -0.00500000
C        0.76030000      -0.52560000      -1.32970000
O        0.76860000      -1.94610000      -1.38560000
C        1.26850000      -2.46700000      -2.58790000
O        2.66330000      -2.24160000      -2.74570000
C        3.37950000      -3.45980000      -2.56470000
C        2.32300000      -4.52680000      -2.52110000
C        1.12160000      -3.96550000      -2.56320000
H        1.10030000       1.86260000       0.10170000
H       -0.50320000       1.88800000      -0.64180000
H       -0.34380000       1.70910000       1.10900000
H        0.72920000      -0.54310000       0.80870000
H       -0.86310000      -0.52020000       0.06710000
H        0.17700000      -0.12070000      -2.17460000
H        1.78490000      -0.13990000      -1.42510000
H        0.76440000      -1.96700000      -3.43200000
H        4.07780000      -3.58390000      -3.40380000
H        3.97760000      -3.43470000      -1.64030000
H        2.55040000      -5.58280000      -2.44950000
H        0.15720000      -4.45280000      -2.52620000
