21
Properties=species:S:1:pos:R:3 gdb_85873=T pbc="F F F"
C       -0.79800000       1.49020000       0.05560000
C       -0.12540000       0.12400000      -0.00280000
C       -1.10910000      -0.94160000      -0.49710000
C        1.24120000       0.05730000      -0.75130000
C        1.80180000      -0.84970000       0.37200000
O        3.11550000      -0.68930000       0.81280000
C        0.61630000      -0.37980000       1.30540000
C        1.04210000       0.65020000       2.22890000
C        1.47300000       1.49910000       2.96750000
H       -0.12020000       2.25560000       0.44170000
H       -1.12290000       1.79500000      -0.94590000
H       -1.68380000       1.47060000       0.70080000
H       -1.47210000      -0.69120000      -1.50000000
H       -0.65100000      -1.93450000      -0.54950000
H       -1.97850000      -1.00900000       0.16640000
H        1.24250000      -0.33810000      -1.77050000
H        1.74760000       1.02760000      -0.74720000
H        1.68730000      -1.90920000       0.13030000
H        3.16280000       0.15070000       1.28850000
H        0.10070000      -1.17870000       1.84760000
H        1.80930000       2.24650000       3.64320000
