16
Properties=species:S:1:pos:R:3 gdb_18491=T pbc="F F F"
N       -0.00780000      -1.13310000      -0.24680000
C       -0.03760000       0.00420000      -0.04420000
C       -0.04010000       1.44550000       0.20110000
C        1.36050000       2.06030000       0.04810000
C        2.03660000       2.14390000      -1.34810000
N        2.28470000       3.62460000      -1.20260000
C        0.94890000       4.23330000      -1.11230000
C        1.49140000       3.58070000       0.09690000
H       -0.74660000       1.91380000      -0.49240000
H       -0.42160000       1.62830000       1.21270000
H        2.03430000       1.58860000       0.76670000
H        2.98030000       1.60220000      -1.41690000
H        1.41460000       1.88890000      -2.21310000
H        0.97400000       5.31830000      -1.13830000
H        0.12590000       3.78970000      -1.66980000
H        1.79890000       4.14890000       0.96910000
