16
Properties=species:S:1:pos:R:3 gdb_14628=T pbc="F F F"
O        0.13620000      -0.12820000      -0.53520000
C        0.11560000       1.06410000      -0.38070000
C        1.33530000       1.92470000      -0.12770000
C        1.44800000       3.06340000      -1.15470000
C        2.60720000       4.00260000      -0.83740000
O        2.62190000       5.10230000      -1.75290000
C        3.59670000       5.14400000      -2.68250000
O        3.66760000       6.00410000      -3.50600000
H       -0.84320000       1.63290000      -0.41950000
H        1.22990000       2.35500000       0.87950000
H        2.21990000       1.28110000      -0.13060000
H        1.58460000       2.64950000      -2.16050000
H        0.52100000       3.64820000      -1.17620000
H        2.49900000       4.43120000       0.16410000
H        3.56610000       3.46870000      -0.87340000
H        4.31430000       4.30460000      -2.58780000
