14
Properties=species:S:1:pos:R:3 gdb_21104=T pbc="F F F"
C       -0.03700000       1.41260000      -0.04760000
N        0.01550000      -0.02970000       0.04490000
N       -0.02340000      -0.79140000      -1.05880000
N        0.04470000      -2.04640000      -0.66950000
C        0.10070000      -2.07860000       0.67510000
O        0.18610000      -3.22110000       1.39340000
C        0.08030000      -0.79220000       1.17450000
N        0.19190000      -0.23900000       2.45860000
H        0.65520000       1.84450000       0.67830000
H        0.25250000       1.68800000      -1.06150000
H       -1.04550000       1.78840000       0.15430000
H        0.22770000      -3.94530000       0.75660000
H        0.63200000      -0.90050000       3.08800000
H       -0.70780000       0.01400000       2.85750000
