23
Properties=species:S:1:pos:R:3 gdb_85870=T pbc="F F F"
C       -0.26230000       1.15500000      -1.28660000
C        0.30570000      -0.16060000      -0.78890000
O        1.70140000      -0.32980000      -1.13870000
C        2.09820000      -0.56820000       0.24730000
C        2.59600000      -1.99950000       0.41680000
C        3.13620000       0.45560000       0.68790000
C        0.64710000      -0.31450000       0.69270000
C        0.14680000       0.49800000       1.84740000
C       -0.14630000      -0.98430000       1.76920000
H        0.29490000       2.00280000      -0.87790000
H       -0.20520000       1.19740000      -2.37900000
H       -1.31530000       1.25610000      -0.99980000
H       -0.29080000      -0.99680000      -1.18440000
H        3.50140000      -2.15390000      -0.17890000
H        2.83800000      -2.21270000       1.46390000
H        1.83940000      -2.71540000       0.08520000
H        2.76020000       1.47260000       0.55250000
H        3.40140000       0.31930000       1.74210000
H        4.04830000       0.34300000       0.09270000
H        0.86480000       0.83750000       2.58720000
H       -0.66760000       1.19340000       1.67060000
H       -1.16030000      -1.29610000       1.53710000
H        0.37260000      -1.64420000       2.45750000
