13
Properties=species:S:1:pos:R:3 gdb_128352=T pbc="F F F"
C        0.00440000       1.43320000      -0.07940000
N       -0.05050000      -0.00610000       0.10650000
C       -1.22320000      -0.67450000       0.04250000
N       -2.40860000      -0.08680000       0.01090000
O       -3.30130000      -1.17280000       0.00300000
C       -2.54430000      -2.27180000       0.01370000
N       -1.26570000      -2.05570000       0.03610000
C       -3.20220000      -3.53470000      -0.00010000
N       -3.74150000      -4.55670000      -0.01170000
H        1.02070000       1.77440000       0.12350000
H       -0.28190000       1.73830000      -1.09430000
H       -0.67500000       1.91970000       0.62520000
H        0.76340000      -0.55650000      -0.11240000
