17
Properties=species:S:1:pos:R:3 gdb_24698=T pbc="F F F"
C        0.13860000       1.41550000      -0.37640000
C        1.42730000       1.98200000       0.27950000
C        2.14880000       0.73760000       0.73110000
N        3.42040000       0.65400000       1.10140000
C        3.81750000      -0.57270000       1.47260000
C        2.96040000      -1.66930000       1.47490000
N        1.67330000      -1.58130000       1.10610000
C        1.28430000      -0.36860000       0.73340000
C       -0.09850000       0.02970000       0.28360000
H       -0.71750000       2.08480000      -0.26900000
H        0.31130000       1.27820000      -1.44870000
H        2.02780000       2.59420000      -0.39830000
H        1.19130000       2.60990000       1.14890000
H        4.85500000      -0.68270000       1.77660000
H        3.31840000      -2.64880000       1.78070000
H       -0.76300000       0.10940000       1.15420000
H       -0.54880000      -0.70260000      -0.39140000
