10
Properties=species:S:1:pos:R:3 gdb_687=T pbc="F F F"
O       -0.04440000       0.07440000      -0.02870000
C        0.04510000       1.25510000       0.03670000
O       -0.98950000       2.17340000       0.21530000
C       -0.05760000       3.26950000       0.00600000
C        0.93390000       3.28310000       1.10560000
C        1.10770000       2.31730000      -0.08040000
H       -0.37440000       4.07580000      -0.63880000
H        1.64720000       4.10180000       1.10840000
H        0.65330000       2.90360000       2.08260000
H        1.98590000       2.29500000      -0.70750000
