12
Properties=species:S:1:pos:R:3 gdb_487=T pbc="F F F"
C        0.00890000      -1.21700000      -0.00460000
C       -0.02290000      -0.01550000       0.00180000
C       -0.01960000       1.44110000       0.00910000
C        1.41910000       2.02410000       0.00010000
C        1.42230000       3.48070000       0.00740000
C        1.39090000       4.68210000       0.01390000
H        0.01960000      -2.27870000      -0.01020000
H       -0.56430000       1.82360000      -0.86150000
H       -0.54970000       1.81480000       0.89250000
H        1.96370000       1.64150000       0.87080000
H        1.94910000       1.65040000      -0.88320000
H        1.38060000       5.74390000       0.02010000
