21
Properties=species:S:1:pos:R:3 gdb_65273=T pbc="F F F"
O        0.13790000       1.37530000       0.09110000
C        0.05310000      -0.01560000      -0.09880000
C        0.92410000      -0.55320000      -1.19000000
C        1.24910000      -0.85150000       0.26380000
C       -1.35850000      -0.54220000       0.11660000
C       -2.39560000       0.03390000      -0.88060000
C       -2.70160000      -1.15750000      -1.80450000
C       -2.47750000      -2.33960000      -0.86090000
O       -1.37510000      -1.96260000      -0.04260000
H        0.07160000       1.54710000       1.03750000
H        0.54460000      -1.36950000      -1.79240000
H        1.54790000       0.16510000      -1.70890000
H        2.09420000      -0.33160000       0.70170000
H        1.07530000      -1.85950000       0.62030000
H       -1.65170000      -0.29770000       1.15140000
H       -3.29990000       0.34450000      -0.34870000
H       -2.00260000       0.90650000      -1.40440000
H       -3.71100000      -1.13080000      -2.22260000
H       -1.99030000      -1.19920000      -2.63520000
H       -3.37110000      -2.52250000      -0.24210000
H       -2.21570000      -3.27410000      -1.36570000
