15
Properties=species:S:1:pos:R:3 gdb_125437=T pbc="F F F"
C       -0.04460000       1.45730000      -0.07710000
C       -0.02950000      -0.02650000      -0.00590000
N       -1.02030000      -0.85480000      -0.14880000
C       -0.40470000      -2.07500000       0.01780000
C       -1.13180000      -3.38790000      -0.04140000
C       -1.71950000      -3.65330000      -1.35120000
C       -2.19940000      -3.87830000      -2.42840000
N        0.87810000      -2.01300000       0.25180000
O        1.14000000      -0.63620000       0.23700000
H        0.31590000       1.89200000       0.85990000
H        0.61040000       1.81010000      -0.87940000
H       -1.06250000       1.79650000      -0.26660000
H       -0.42640000      -4.18050000       0.22830000
H       -1.92080000      -3.38210000       0.72110000
H       -2.62580000      -4.07450000      -3.38080000
