16
Properties=species:S:1:pos:R:3 gdb_47236=T pbc="F F F"
O       -0.05400000       0.41380000       1.09250000
C        0.01150000       1.26560000       0.25100000
O       -1.08410000       1.78540000      -0.40170000
C       -1.72090000       2.81740000       0.34790000
C       -0.86030000       4.02280000       0.59720000
C        0.43630000       4.19810000       0.32970000
C        1.39650000       3.24130000      -0.27890000
C        2.22550000       2.31710000       0.58970000
N        1.17630000       1.80930000      -0.26450000
H       -2.60350000       3.10610000      -0.23340000
H       -2.08230000       2.41010000       1.30470000
H       -1.40020000       4.84760000       1.05990000
H        0.87430000       5.16910000       0.55400000
H        1.87810000       3.60450000      -1.18680000
H        3.24190000       2.07170000       0.29580000
H        2.02990000       2.31930000       1.65850000
