18
Properties=species:S:1:pos:R:3 gdb_7412=T pbc="F F F"
C       -0.32680000       1.44830000       0.06960000
N       -0.04000000       0.01190000      -0.02030000
C        0.04650000      -0.64430000       1.23320000
C        0.25470000      -2.13870000       1.29280000
N       -0.07840000       0.10420000       2.26170000
C        0.19090000      -0.61700000      -1.24420000
C        0.07670000       0.23260000      -2.50400000
O        0.47450000      -1.79470000      -1.34090000
H        0.49920000       1.97400000       0.55570000
H       -0.49100000       1.86240000      -0.91970000
H       -1.21440000       1.60560000       0.68400000
H        1.21610000      -2.42910000       0.86730000
H        0.21010000      -2.44590000       2.34100000
H       -0.50280000      -2.67780000       0.72190000
H       -0.01700000      -0.45810000       3.10790000
H        0.78540000       1.06590000      -2.50690000
H        0.29870000      -0.42710000      -3.34190000
H       -0.92830000       0.64570000      -2.63260000
