15
Properties=species:S:1:pos:R:3 gdb_124916=T pbc="F F F"
C       -0.04120000       1.49350000       0.10420000
C        0.02770000       0.01170000      -0.04260000
C        0.01650000      -0.78040000      -1.19020000
C       -0.06460000      -0.35150000      -2.53030000
C       -0.13410000       0.02400000      -3.67320000
C        0.10620000      -2.11020000      -0.68600000
O        0.12880000      -3.21970000      -1.44390000
N        0.16730000      -2.15400000       0.63110000
N        0.11780000      -0.84160000       0.99880000
H        0.84700000       1.89240000       0.60680000
H       -0.10680000       1.95130000      -0.88460000
H       -0.91930000       1.80280000       0.68220000
H       -0.19460000       0.34160000      -4.68410000
H        0.19410000      -3.97330000      -0.84350000
H        0.14890000      -0.61340000       1.97720000
