17
Properties=species:S:1:pos:R:3 gdb_127048=T pbc="F F F"
C        0.04800000       1.50600000      -0.09390000
C        0.01530000      -0.00820000      -0.03450000
O        0.71090000      -0.50550000      -1.19210000
C        0.78450000      -1.83640000      -1.30720000
N        0.27190000      -2.68740000      -0.45190000
O        0.57360000      -3.94310000      -0.96940000
C        1.26640000      -3.79000000      -2.12480000
C        1.43920000      -2.47390000      -2.40870000
N        2.12810000      -1.81250000      -3.42970000
H        1.07790000       1.87370000      -0.08850000
H       -0.44530000       1.87160000      -0.99910000
H       -0.47190000       1.92190000       0.77390000
H        0.50690000      -0.39400000       0.86550000
H       -1.00910000      -0.39760000      -0.04210000
H        1.56040000      -4.70020000      -2.62220000
H        2.08230000      -2.28570000      -4.32220000
H        1.81150000      -0.85660000      -3.53030000
