21
Properties=species:S:1:pos:R:3 gdb_102191=T pbc="F F F"
O        0.05640000       1.33990000       0.49160000
C       -0.04320000      -0.02400000       0.13780000
C       -1.48900000      -0.52510000      -0.04200000
C       -2.13080000      -0.03250000      -1.36610000
C       -2.20070000       1.41690000      -1.52960000
C       -2.26330000       2.61060000      -1.67290000
C       -1.54290000      -2.04080000       0.00640000
C       -1.59360000      -2.76150000       1.32870000
C       -2.80420000      -2.75340000       0.42720000
H       -0.38560000       1.85670000      -0.19260000
H        0.53560000      -0.25230000      -0.77520000
H        0.42200000      -0.58230000       0.95690000
H       -2.07370000      -0.12280000       0.79510000
H       -1.56710000      -0.45800000      -2.20810000
H       -3.14380000      -0.44590000      -1.44080000
H       -2.33250000       3.66260000      -1.80230000
H       -0.96460000      -2.53040000      -0.77520000
H       -1.03660000      -3.68550000       1.43630000
H       -1.63250000      -2.15960000       2.23090000
H       -3.65140000      -2.14490000       0.72840000
H       -3.07690000      -3.67170000      -0.08090000
