19
Properties=species:S:1:pos:R:3 gdb_73647=T pbc="F F F"
C       -0.23450000       1.47750000       0.04750000
C       -0.00360000      -0.01800000       0.02790000
O       -1.24580000      -0.69020000      -0.07280000
C       -1.08060000      -2.00450000       0.45300000
C       -0.10440000      -1.85110000       1.63320000
C        0.82980000      -0.72670000       1.16450000
C        1.93760000      -1.12730000       0.14480000
C        1.08240000      -0.52200000      -0.98280000
O        1.18430000      -0.47440000      -2.17290000
H        0.71050000       2.02010000       0.14520000
H       -0.71470000       1.79160000      -0.88350000
H       -0.88470000       1.74680000       0.88540000
H       -2.06790000      -2.37420000       0.73960000
H       -0.67240000      -2.68070000      -0.31430000
H       -0.64990000      -1.53510000       2.52750000
H        0.42100000      -2.78090000       1.86820000
H        1.17190000      -0.08600000       1.97710000
H        2.89420000      -0.61240000       0.27700000
H        2.14030000      -2.19780000       0.03580000
