25
Properties=species:S:1:pos:R:3 gdb_104615=T pbc="F F F"
C       -0.45020000       0.07460000       0.26370000
O       -0.56020000      -0.62860000      -0.95780000
C        0.58050000      -0.67190000      -1.78220000
C        0.61510000       0.38130000      -2.87990000
C        0.67210000       1.86410000      -2.46260000
C        1.95270000       2.21950000      -1.69490000
C        0.52410000       2.75780000      -3.70270000
C        1.85580000      -1.24460000      -1.20850000
C        1.00530000      -2.06790000      -2.15090000
H        0.33650000      -0.33680000       0.91100000
H       -0.25350000       1.14500000       0.12470000
H       -1.41140000      -0.03920000       0.77200000
H        1.47430000       0.16610000      -3.52980000
H       -0.28130000       0.23120000      -3.49610000
H       -0.18970000       2.06330000      -1.81300000
H        1.95760000       3.27750000      -1.41160000
H        2.06400000       1.62770000      -0.78250000
H        2.83940000       2.04140000      -2.31590000
H       -0.40840000       2.54880000      -4.23730000
H        0.52470000       3.81810000      -3.42910000
H        1.35270000       2.59600000      -4.40310000
H        2.80170000      -0.85280000      -1.56630000
H        1.86340000      -1.53710000      -0.16470000
H        0.42540000      -2.87320000      -1.71600000
H        1.36580000      -2.25240000      -3.15720000
