21
Properties=species:S:1:pos:R:3 gdb_117547=T pbc="F F F"
C        0.00830000       1.48220000       0.01440000
C       -0.14360000      -0.02460000      -0.08640000
O        0.79120000      -0.50010000      -1.05100000
C        0.79570000      -1.89410000      -1.23230000
C       -0.46870000      -2.35090000      -1.85560000
N       -1.48560000      -2.63890000      -2.32250000
C        2.01130000      -2.28270000      -2.10420000
C        3.30760000      -1.71240000      -1.51910000
N        1.99170000      -3.73810000      -2.25720000
H        1.02350000       1.74980000       0.32120000
H       -0.19610000       1.95330000      -0.95090000
H       -0.69430000       1.88230000       0.75110000
H        0.05360000      -0.50610000       0.88500000
H       -1.16490000      -0.29530000      -0.38920000
H        0.88540000      -2.41140000      -0.26030000
H        1.84060000      -1.84650000      -3.09460000
H        4.15330000      -1.97260000      -2.16310000
H        3.25950000      -0.62580000      -1.42310000
H        3.49970000      -2.13410000      -0.52440000
H        2.55080000      -4.01570000      -3.05610000
H        2.40900000      -4.18260000      -1.44380000
