18
Properties=species:S:1:pos:R:3 gdb_9400=T pbc="F F F"
C        0.05760000       1.32550000      -0.27620000
C        0.08410000      -0.17650000       0.00260000
O        0.74100000      -0.53380000       1.20370000
C        2.15820000      -0.43850000       1.18050000
C        2.66320000      -1.13520000       2.43450000
O        2.27940000      -2.49440000       2.46470000
C       -1.32170000      -0.76220000       0.10710000
O       -2.26040000      -0.38810000      -0.54340000
H        1.05090000       1.70490000      -0.52750000
H       -0.61640000       1.52020000      -1.11370000
H       -0.31380000       1.86320000       0.60090000
H        0.56360000      -0.69770000      -0.84800000
H        2.55260000      -0.94360000       0.28480000
H        2.48890000       0.61030000       1.16320000
H        3.75750000      -1.10590000       2.45320000
H        2.29600000      -0.59040000       3.31880000
H        1.32800000      -2.50140000       2.30940000
H       -1.39800000      -1.59520000       0.84050000
