19
Properties=species:S:1:pos:R:3 gdb_18478=T pbc="F F F"
C       -0.22010000       1.51190000       0.24210000
C        0.22050000       0.11550000      -0.18920000
N        0.77260000      -0.60400000       0.95940000
C       -0.02470000      -1.31590000       1.92470000
C       -1.20790000      -2.07170000       1.29240000
C       -0.17040000      -2.86570000       0.42310000
O       -0.24880000      -2.83480000      -0.98560000
C        0.96740000      -2.03130000       1.02400000
H        0.60960000       2.05440000       0.70470000
H       -0.57770000       2.08660000      -0.61790000
H       -1.03460000       1.45850000       0.97280000
H       -0.60430000      -0.41220000      -0.68200000
H        1.02590000       0.18460000      -0.92880000
H        0.07290000      -1.06410000       2.97510000
H       -1.74030000      -2.71280000       1.99860000
H       -1.93430000      -1.46310000       0.74700000
H       -0.09810000      -3.89990000       0.78780000
H       -0.96810000      -3.41220000      -1.26070000
H        1.96350000      -2.40670000       1.23490000
