18
Properties=species:S:1:pos:R:3 gdb_15255=T pbc="F F F"
C        0.05740000       1.07190000       0.54040000
O       -0.11890000       0.03110000      -0.40480000
C       -1.32630000      -0.63470000      -0.27010000
C       -1.40110000      -2.01820000      -0.79760000
C       -0.22530000      -2.66950000      -1.49610000
C       -1.44630000      -1.80050000       0.72990000
C       -0.30310000      -2.16820000       1.58970000
O       -0.42270000      -2.62190000       2.70520000
H        1.01170000       1.55090000       0.31270000
H       -0.74640000       1.81860000       0.46740000
H        0.08160000       0.68420000       1.56840000
H       -2.20470000       0.00870000      -0.34650000
H       -2.36870000      -2.30000000      -1.20350000
H        0.72570000      -2.23640000      -1.18400000
H       -0.20000000      -3.74680000      -1.30540000
H       -0.31160000      -2.52210000      -2.57750000
H       -2.40740000      -1.93940000       1.21420000
H        0.70190000      -1.99500000       1.15210000
