19
Properties=species:S:1:pos:R:3 gdb_76506=T pbc="F F F"
C       -0.14650000       1.49640000      -0.01920000
C       -0.03090000      -0.01100000      -0.05650000
C        1.33650000      -0.68870000      -0.20860000
O        2.49590000       0.08310000      -0.20650000
C        0.58410000      -0.77110000       1.08110000
O        1.19290000      -0.08260000       2.20120000
C        0.90850000      -1.22110000       3.03370000
C       -0.56560000      -1.43980000       3.14940000
C        0.18170000      -1.94940000       1.92820000
H        0.74550000       1.94450000       0.42200000
H       -0.25650000       1.89860000      -1.03140000
H       -1.01350000       1.81360000       0.56890000
H       -0.84620000      -0.53170000      -0.55550000
H        1.40440000      -1.56790000      -0.84620000
H        2.71940000       0.22940000       0.72390000
H        1.66550000      -1.52250000       3.74680000
H       -0.86730000      -2.21210000       3.85050000
H       -1.24070000      -0.59300000       3.07050000
H        0.20800000      -2.98730000       1.62670000
