19
Properties=species:S:1:pos:R:3 gdb_38665=T pbc="F F F"
C       -0.01430000       1.35940000      -0.61600000
C        1.15040000       2.06610000       0.03080000
C        1.86440000       1.26620000       0.81790000
C        1.34160000      -0.14830000       0.85100000
C        1.00430000      -0.72830000       2.25850000
C       -0.50040000      -0.62030000       2.38430000
O       -1.00500000       0.70470000       2.17350000
C       -1.08700000      -0.23820000       1.09460000
C       -0.00620000      -0.04820000       0.04660000
H       -0.96090000       1.88670000      -0.44430000
H        0.11140000       1.29640000      -1.70470000
H        1.36100000       3.11480000      -0.14940000
H        2.74840000       1.56220000       1.37330000
H        2.05560000      -0.81650000       0.35410000
H        1.29520000      -1.78270000       2.33210000
H        1.52110000      -0.19220000       3.06120000
H       -1.03770000      -1.20770000       3.12610000
H       -2.09780000      -0.51380000       0.79970000
H       -0.09750000      -0.84350000      -0.69950000
