15
Properties=species:S:1:pos:R:3 gdb_27747=T pbc="F F F"
N        0.10430000       1.33010000       0.14330000
C       -0.05670000      -0.02690000       0.06600000
C       -1.17840000      -0.82290000       0.07290000
C       -0.69340000      -2.16050000       0.05060000
N       -1.47920000      -3.29070000       0.11380000
C        0.69500000      -2.09360000       0.02460000
O        1.06610000      -0.74520000       0.03640000
C        1.70320000      -3.09720000      -0.02540000
O        2.91060000      -2.92950000      -0.05840000
H        1.00210000       1.66510000      -0.17510000
H       -0.67410000       1.88250000      -0.17990000
H       -2.20530000      -0.49640000       0.11020000
H       -2.41540000      -3.18720000      -0.24660000
H       -1.04530000      -4.15190000      -0.18070000
H        1.26840000      -4.12730000      -0.03480000
