21
Properties=species:S:1:pos:R:3 gdb_71240=T pbc="F F F"
O       -0.07110000       1.41110000      -0.04520000
C        0.00990000       0.00840000       0.02540000
C        0.29230000      -0.66700000       1.40400000
C       -0.77500000      -1.70210000       1.00340000
C       -0.44560000      -2.55550000      -0.28900000
C       -1.58380000      -1.79590000      -1.03660000
C       -1.40540000      -0.68250000       0.00790000
C        0.91030000      -2.14670000      -0.87570000
C        0.93130000      -0.60480000      -1.03410000
H        0.82530000       1.76470000      -0.06100000
H        1.31540000      -0.98800000       1.62920000
H       -0.07850000      -0.03740000       2.21830000
H       -1.35580000      -2.21890000       1.76780000
H       -0.53980000      -3.63960000      -0.19480000
H       -1.44100000      -1.57340000      -2.09960000
H       -2.55360000      -2.28610000      -0.90940000
H       -2.21580000      -0.00270000       0.27340000
H        1.71850000      -2.47590000      -0.21350000
H        1.07450000      -2.63750000      -1.84110000
H        0.58480000      -0.30090000      -2.02730000
H        1.95020000      -0.21280000      -0.91630000
