14
Properties=species:S:1:pos:R:3 gdb_27960=T pbc="F F F"
N        0.00110000       1.34460000       0.10450000
C        0.00690000      -0.01120000       0.03800000
N       -1.18380000      -0.62640000       0.03050000
C       -1.15060000      -1.95880000       0.00680000
C       -2.45690000      -2.69830000      -0.00480000
O       -3.54210000      -2.18140000      -0.00280000
C        0.03750000      -2.68440000      -0.01220000
C        1.21290000      -1.93290000      -0.01590000
N        1.22040000      -0.60800000       0.00740000
H        0.86330000       1.83080000      -0.06840000
H       -0.87260000       1.81920000      -0.04360000
H       -2.33620000      -3.80530000      -0.01680000
H        0.04770000      -3.76700000      -0.03210000
H        2.18630000      -2.41870000      -0.04090000
