18
Properties=species:S:1:pos:R:3 gdb_53120=T pbc="F F F"
C        0.10170000       1.46700000      -0.09590000
C        0.05010000       0.01370000      -0.02570000
C        0.01040000      -1.18920000       0.02810000
C       -0.03230000      -2.63820000       0.09490000
C       -0.01550000      -3.17450000       1.53950000
C       -1.49120000      -3.22050000       1.61120000
C       -1.47460000      -3.24940000       0.03490000
C       -1.18790000      -4.74890000       0.19530000
N       -0.72280000      -4.49920000       1.60130000
H        0.76280000       1.80220000      -0.90290000
H       -0.89030000       1.89310000      -0.28360000
H        0.47570000       1.89950000       0.83880000
H        0.68870000      -3.07980000      -0.60470000
H        0.71230000      -2.97280000       2.31360000
H       -2.21190000      -2.94190000       2.36760000
H       -2.20820000      -2.84250000      -0.65710000
H       -2.09000000      -5.36420000       0.23830000
H       -0.45100000      -5.21380000      -0.47090000
