17
Properties=species:S:1:pos:R:3 gdb_88329=T pbc="F F F"
C        1.23750000       1.32030000      -0.33820000
C        0.23740000       0.25320000       0.01830000
O        0.72460000      -0.99970000       0.52990000
C       -0.07750000      -0.18300000       1.39360000
C        0.59340000       0.37700000       2.61670000
N       -0.09370000       1.04080000       3.44970000
N        1.95950000       0.04890000       2.68590000
C        2.83240000       0.39030000       3.68720000
O        2.56770000       1.07600000       4.64920000
H        1.99570000       1.44980000       0.43600000
H        1.73860000       1.06950000      -1.27870000
H        0.72160000       2.27580000      -0.47720000
H       -0.56510000       0.12230000      -0.70910000
H       -1.07980000      -0.55390000       1.59570000
H        0.48750000       1.35720000       4.22660000
H        2.28400000      -0.55850000       1.94360000
H        3.83710000      -0.03990000       3.51390000
