17
Properties=species:S:1:pos:R:3 gdb_55396=T pbc="F F F"
N        0.21750000       0.99540000       0.78630000
C        0.01160000       0.04950000      -0.17240000
O        0.85250000      -0.23570000      -1.00580000
C       -1.34290000      -0.64920000      -0.13090000
C       -1.95180000      -0.67260000      -1.53550000
O       -3.16370000      -1.43670000      -1.56790000
C       -3.20480000      -2.52750000      -0.76690000
N       -2.36840000      -2.92460000       0.09350000
C       -1.18030000      -2.11510000       0.32620000
H        1.11930000       1.44190000       0.83080000
H       -0.46030000       1.19800000       1.49920000
H       -2.03180000      -0.13460000       0.54910000
H       -2.22230000       0.32680000      -1.88410000
H       -1.22700000      -1.10290000      -2.23360000
H       -4.12500000      -3.08030000      -0.94630000
H       -0.32630000      -2.55760000      -0.20120000
H       -0.94470000      -2.15650000       1.39530000
