19
Properties=species:S:1:pos:R:3 gdb_31058=T pbc="F F F"
C       -0.16040000       1.43020000       0.03030000
N        0.19690000       0.03160000      -0.14440000
C        0.72780000      -0.63500000       0.97480000
C        0.76640000      -2.00100000       1.13260000
O        0.24400000      -3.00050000       0.35710000
N        1.41310000      -2.28570000       2.31890000
C        1.78460000      -1.11580000       2.93510000
C        2.48220000      -1.09810000       4.25430000
C        1.37880000      -0.07860000       2.11970000
H        0.74320000       2.02550000       0.19930000
H       -0.62730000       1.79620000      -0.88800000
H       -0.84760000       1.61780000       0.87230000
H       -0.56660000      -0.50130000      -0.54200000
H        0.80340000      -3.12030000      -0.42010000
H        1.51820000      -3.21390000       2.68980000
H        3.44060000      -1.63280000       4.22910000
H        2.69050000      -0.06610000       4.54670000
H        1.87970000      -1.55050000       5.05310000
H        1.53290000       0.96890000       2.32800000
