22
Properties=species:S:1:pos:R:3 gdb_120475=T pbc="F F F"
C       -0.39730000       1.09760000       0.13050000
C        0.33260000      -0.23960000       0.22960000
C        1.34470000      -0.50150000      -0.91910000
O        1.13760000       0.29050000      -2.06030000
C        2.45460000      -0.09250000       0.08420000
N        1.48920000      -0.32070000       1.17300000
C        1.55780000       0.46820000       2.39180000
C        0.74110000      -0.22030000       3.48870000
O        1.15890000      -1.55840000       3.65540000
H        0.28780000       1.93370000      -0.03240000
H       -1.08830000       1.07090000      -0.71650000
H       -0.97870000       1.29400000       1.03660000
H       -0.39760000      -1.04000000       0.39560000
H        1.39940000      -1.56730000      -1.17190000
H        1.77850000       0.03500000      -2.73040000
H        3.36470000      -0.70020000       0.14180000
H        2.73300000       0.96340000      -0.05660000
H        2.61010000       0.49200000       2.69950000
H        1.22900000       1.51310000       2.26150000
H        0.87780000       0.29930000       4.44360000
H       -0.33310000      -0.16460000       3.23830000
H        1.35620000      -1.85730000       2.75530000
