15
Properties=species:S:1:pos:R:3 gdb_1645=T pbc="F F F"
C        0.00880000       1.52960000      -0.02110000
C       -0.04540000       0.00580000      -0.08390000
C       -1.45260000      -0.54110000      -0.04300000
O       -2.44090000       0.16200000       0.00200000
C       -1.62040000      -2.05880000      -0.05200000
N       -2.93040000      -2.42950000      -0.14590000
N       -0.56730000      -2.78550000       0.00560000
H        1.04510000       1.87640000      -0.05850000
H       -0.53590000       1.97890000      -0.85580000
H       -0.44590000       1.90290000       0.90060000
H        0.43060000      -0.38400000      -0.99240000
H        0.51770000      -0.46480000       0.72990000
H       -3.60750000      -1.69360000      -0.01030000
H       -3.20280000      -3.37390000       0.06590000
H       -0.79500000      -3.78240000       0.00130000
