16
Properties=species:S:1:pos:R:3 gdb_51541=T pbc="F F F"
O        0.32670000      -0.07530000      -0.01160000
C        0.16080000       1.10220000      -0.07790000
O        1.14450000       1.99180000       0.18980000
C        0.85590000       3.37320000       0.09000000
C        1.30020000       4.20070000       1.32960000
N        2.14590000       4.98560000       0.42850000
C        1.87580000       4.17980000      -0.76050000
C        2.89880000       6.09900000       0.57180000
O        3.52190000       6.62060000      -0.32900000
H       -0.79220000       1.59150000      -0.35870000
H       -0.18810000       3.52640000      -0.19720000
H        0.51180000       4.76560000       1.83750000
H        1.85280000       3.59910000       2.05970000
H        2.72910000       3.58050000      -1.09390000
H        1.47130000       4.74330000      -1.60610000
H        2.87610000       6.48490000       1.61150000
