20
Properties=species:S:1:pos:R:3 gdb_89185=T pbc="F F F"
C       -0.19420000       1.39830000       0.04530000
N        0.06010000      -0.03050000       0.07440000
C        1.11560000      -0.49240000      -0.88630000
C        1.89850000      -1.12720000       0.25080000
O        3.26790000      -1.23370000       0.20820000
C        0.88410000      -0.48830000       1.21380000
C        1.03630000      -1.99990000       1.12790000
C       -0.05780000      -2.94010000       0.68680000
O        1.88560000      -2.51750000       2.13490000
H        0.71830000       2.01540000       0.14480000
H       -0.68010000       1.65970000      -0.90030000
H       -0.87680000       1.66590000       0.85910000
H        0.75190000      -1.13720000      -1.69380000
H        1.67730000       0.34770000      -1.31230000
H        3.51560000      -1.80670000       0.94690000
H        0.96150000       0.07110000       2.14060000
H       -0.71510000      -2.44680000      -0.03190000
H        0.35850000      -3.84840000       0.24020000
H       -0.67180000      -3.23670000       1.54670000
H        1.40220000      -2.53430000       2.96760000
