21
Properties=species:S:1:pos:R:3 gdb_88612=T pbc="F F F"
C        0.19600000       1.52990000      -0.22580000
C       -0.06530000       0.07120000       0.06400000
N        1.05960000      -0.86380000      -0.11860000
C        0.51050000      -0.65780000       1.23200000
C        1.30550000      -0.00460000       2.33670000
C        2.46240000      -0.70000000       3.10560000
C        3.31760000      -0.39340000       1.85680000
N        2.51200000       0.91580000       2.02890000
C        2.83340000       0.73680000       3.52490000
H        1.17360000       1.83040000       0.15600000
H        0.16350000       1.71570000      -1.30490000
H       -0.57000000       2.15640000       0.24500000
H       -1.04090000      -0.28770000      -0.26420000
H        0.73760000      -1.74980000      -0.49750000
H       -0.11820000      -1.45630000       1.63090000
H        0.58590000       0.50990000       2.98770000
H        2.42960000      -1.60910000       3.71810000
H        4.39110000      -0.24910000       2.00970000
H        3.10290000      -0.90830000       0.92460000
H        2.15450000       1.28040000       4.18880000
H        3.87970000       0.94470000       3.76350000
