19
Properties=species:S:1:pos:R:3 gdb_70103=T pbc="F F F"
O       -0.10090000       1.36530000       0.04100000
C        0.04630000      -0.02000000      -0.00370000
C       -0.53830000      -0.78390000       1.13940000
C        0.97670000      -0.79930000       0.92040000
C        1.50830000      -1.91590000       0.08870000
C        1.01150000      -1.88220000      -1.15410000
C        0.10740000      -0.71720000      -1.35440000
C       -1.09240000      -0.76220000      -2.27540000
C        0.09610000       0.07900000      -2.64670000
H        0.69470000       1.75670000      -0.33740000
H       -0.89320000      -0.17710000       1.96530000
H       -1.09930000      -1.69260000       0.94740000
H        1.59730000      -0.30200000       1.65790000
H        2.19230000      -2.66520000       0.46980000
H        1.20950000      -2.60450000      -1.93810000
H       -1.27460000      -1.67680000      -2.82960000
H       -1.98840000      -0.25010000      -1.94010000
H       -0.01190000       1.15490000      -2.56420000
H        0.74230000      -0.25350000      -3.45190000
