15
Properties=species:S:1:pos:R:3 gdb_31217=T pbc="F F F"
O        0.17270000       1.22250000      -0.48620000
C       -0.04840000       0.03310000       0.24820000
C       -1.43150000      -0.51490000       0.07300000
C       -2.18920000      -0.73680000      -1.04970000
C       -3.44090000      -1.28120000      -0.58400000
C       -3.34000000      -1.34680000       0.76440000
O       -2.12550000      -0.88050000       1.17630000
C       -1.78600000      -0.46860000      -2.37830000
C       -1.42740000      -0.23460000      -3.50560000
H        0.01190000       1.02570000      -1.41700000
H        0.69270000      -0.73960000      -0.01440000
H        0.09860000       0.27570000       1.30460000
H       -4.28270000      -1.57190000      -1.19120000
H       -4.00260000      -1.67780000       1.54630000
H       -1.12380000      -0.03600000      -4.50360000
