16
Properties=species:S:1:pos:R:3 gdb_31892=T pbc="F F F"
C       -0.23540000       1.46950000       0.09680000
N       -0.09950000       0.05720000      -0.23660000
C       -1.16460000      -0.79400000      -0.07450000
C       -1.25150000      -2.15820000       0.06180000
C       -2.64370000      -2.44970000       0.10320000
C       -3.31850000      -1.26550000      -0.00190000
O       -2.38890000      -0.23340000      -0.11120000
C       -4.67540000      -0.92490000      -0.01100000
C       -5.84810000      -0.64060000      -0.01870000
H        0.69490000       1.97770000      -0.16510000
H       -1.04360000       1.90740000      -0.49190000
H       -0.45160000       1.64820000       1.16010000
H        0.77720000      -0.35930000       0.03740000
H       -0.42910000      -2.85240000       0.12120000
H       -3.10360000      -3.42030000       0.20310000
H       -6.88020000      -0.39360000      -0.02440000
