17
Properties=species:S:1:pos:R:3 gdb_43184=T pbc="F F F"
O       -0.07610000      -0.01470000       0.17140000
C       -0.07450000       1.18030000       0.08900000
C       -1.15380000       2.26170000       0.14350000
C       -1.60500000       2.78470000      -1.27670000
C       -0.72010000       4.06180000      -1.11800000
C       -0.02530000       3.35790000       0.03070000
O        0.61000000       3.95930000       1.14290000
C        1.56410000       2.87140000       1.21710000
C        1.03830000       2.22650000      -0.10110000
H       -1.93430000       2.22480000       0.90330000
H       -1.30830000       2.13350000      -2.10110000
H       -2.67730000       2.96560000      -1.34790000
H       -0.10860000       4.38720000      -1.96340000
H       -1.31290000       4.90960000      -0.76130000
H        2.59120000       3.24130000       1.15120000
H        1.44570000       2.27500000       2.12820000
H        1.76040000       2.11430000      -0.90980000
