19
Properties=species:S:1:pos:R:3 gdb_64977=T pbc="F F F"
C        0.06500000       1.50800000      -0.10220000
C        0.07220000      -0.00820000      -0.10780000
C        1.41230000      -0.72540000      -0.26400000
C        0.73530000      -0.73450000       1.06230000
C       -1.08710000      -0.74900000      -0.70610000
O       -1.12730000      -1.96350000      -0.72750000
C       -2.23100000       0.06890000      -1.30260000
C       -3.33390000      -0.80430000      -1.87110000
O       -3.81810000      -0.63780000      -2.95990000
H        0.97820000       1.88710000       0.36530000
H        0.02220000       1.92330000      -1.11480000
H       -0.78060000       1.91400000       0.46370000
H        1.39780000      -1.64400000      -0.83830000
H        2.28290000      -0.09450000      -0.40540000
H        1.12770000      -0.10970000       1.85700000
H        0.26650000      -1.65930000       1.37630000
H       -2.66030000       0.70340000      -0.51270000
H       -1.86700000       0.74730000      -2.08090000
H       -3.68210000      -1.61050000      -1.19490000
