13
Properties=species:S:1:pos:R:3 gdb_21660=T pbc="F F F"
N       -0.01750000       1.35170000       0.14500000
C        0.04900000      -0.02680000       0.03770000
N       -1.05800000      -0.76020000       0.03090000
N       -0.60200000      -2.04630000      -0.00490000
C        0.72960000      -2.14360000      -0.03440000
C        1.22520000      -0.84270000      -0.00410000
C        2.62170000      -0.45340000       0.00620000
O        3.55970000      -1.22400000      -0.04040000
H        0.69260000       1.85350000      -0.36750000
H       -0.94320000       1.71100000      -0.04560000
H       -1.27670000      -2.79230000      -0.01250000
H        1.25200000      -3.08610000      -0.06820000
H        2.79810000       0.64510000       0.06660000
