14
Properties=species:S:1:pos:R:3 gdb_129040=T pbc="F F F"
N       -0.09420000       1.35530000       0.01100000
C        0.02640000       0.07480000       0.00320000
C        1.25240000      -0.70760000      -0.00840000
C        1.19790000      -2.05630000      -0.01560000
N       -0.00620000      -2.69810000      -0.01210000
N       -1.19620000      -2.07780000      -0.00150000
C       -1.19730000      -0.77080000       0.00590000
C       -2.47390000      -0.13940000       0.01680000
C       -3.55090000       0.39580000       0.02600000
H        0.82910000       1.79450000       0.00790000
H        2.21010000      -0.20060000      -0.01130000
H        2.06920000      -2.70070000      -0.02440000
H       -0.06850000      -3.70210000      -0.01730000
H       -4.49650000       0.87870000       0.03410000
