22
Properties=species:S:1:pos:R:3 gdb_113190=T pbc="F F F"
C        0.02610000       1.37290000      -0.44550000
C        0.01630000       0.01960000       0.26610000
O        0.55260000       0.10630000       1.58490000
C       -1.36780000      -0.63270000       0.28120000
C       -2.44140000       0.13370000       1.03140000
N       -1.73220000      -1.27860000      -0.99620000
C       -1.52240000      -2.11380000       0.21020000
C       -0.41900000      -3.14120000       0.09880000
O       -0.77060000      -4.14470000      -0.84150000
H        1.04700000       1.76150000      -0.49310000
H       -0.35940000       1.27190000      -1.46400000
H       -0.59180000       2.11120000       0.07980000
H        0.69360000      -0.64570000      -0.27430000
H        0.18260000       0.88880000       2.00600000
H       -2.64470000       1.10610000       0.56990000
H       -3.38000000      -0.42830000       1.05270000
H       -2.14010000       0.30710000       2.07000000
H       -2.72580000      -1.16380000      -1.18070000
H       -2.42280000      -2.50870000       0.67980000
H        0.53630000      -2.67070000      -0.16640000
H       -0.28100000      -3.64900000       1.05890000
H       -0.97020000      -3.67490000      -1.66010000
