18
Properties=species:S:1:pos:R:3 gdb_105854=T pbc="F F F"
C       -0.22730000       1.34540000      -0.02990000
O        0.12340000      -0.02930000       0.10970000
C        0.73710000      -0.54110000      -0.99870000
C       -0.03680000      -1.06040000      -2.22810000
C        0.19610000      -0.66060000      -3.66740000
C        0.84640000      -1.98870000      -1.42970000
N        2.27220000      -1.78340000      -1.71480000
C        2.21830000      -0.41720000      -1.37390000
O        3.04230000       0.45250000      -1.40550000
H        0.65780000       1.96080000      -0.22810000
H       -0.95390000       1.48810000      -0.84140000
H       -0.67860000       1.64990000       0.91620000
H       -1.08620000      -1.17670000      -1.95620000
H        1.26040000      -0.56050000      -3.89690000
H       -0.22640000      -1.40640000      -4.34960000
H       -0.27920000       0.30040000      -3.88760000
H        0.51440000      -2.87080000      -0.89830000
H        2.73220000      -2.11680000      -2.55460000
