16
Properties=species:S:1:pos:R:3 gdb_49984=T pbc="F F F"
O       -0.07110000      -0.01530000      -0.30200000
C        0.01620000       1.14110000       0.02780000
C        1.27410000       1.91930000       0.05630000
C        1.20900000       3.43900000      -0.18050000
C        1.50040000       2.92550000       1.17410000
C        0.73070000       3.10150000       2.49700000
C        2.13870000       3.23120000       3.14100000
O        2.57890000       3.40660000       4.24120000
N        2.73660000       3.06370000       1.90720000
H       -0.88330000       1.72020000       0.34660000
H        2.14550000       1.38940000      -0.31460000
H        2.01250000       3.87200000      -0.76600000
H        0.22940000       3.86870000      -0.36860000
H        0.12130000       4.00370000       2.57000000
H        0.16400000       2.23540000       2.84170000
H        3.70460000       3.04110000       1.62130000
