15
Properties=species:S:1:pos:R:3 gdb_80195=T pbc="F F F"
O       -0.26660000       1.49240000       0.37610000
C       -0.08380000       0.12900000       0.11480000
C       -0.49930000      -0.88720000       1.14850000
O       -1.17030000      -0.36220000       2.27510000
C       -2.36430000       0.20610000       1.89940000
O       -3.04350000       0.81610000       2.66440000
C       -2.62490000      -0.05510000       0.39230000
O       -3.05340000       1.09590000      -0.28470000
C       -1.33470000      -0.69430000      -0.09350000
H        0.22750000       1.72910000       1.16940000
H        0.77880000      -0.11190000      -0.50360000
H        0.08870000      -1.76590000       1.37990000
H       -3.44770000      -0.77520000       0.32380000
H       -2.34460000       1.74660000      -0.19670000
H       -1.36780000      -1.42570000      -0.89030000
