14
Properties=species:S:1:pos:R:3 gdb_24706=T pbc="F F F"
C        0.02750000       1.39920000      -0.13640000
O        1.35020000       1.85200000       0.18560000
C        2.01400000       0.76900000       0.67320000
C        3.30940000       0.66620000       1.12440000
C        3.68700000      -0.61410000       1.56700000
N        2.89750000      -1.68340000       1.57360000
C        1.63210000      -1.55670000       1.12620000
C        1.17590000      -0.34010000       0.67370000
O       -0.05390000       0.00880000       0.18270000
H       -0.70250000       1.95910000       0.46020000
H       -0.15440000       1.54420000      -1.20790000
H        3.99260000       1.50560000       1.14010000
H        4.69820000      -0.76460000       1.93680000
H        1.00010000      -2.43890000       1.13800000
