19
Properties=species:S:1:pos:R:3 gdb_108840=T pbc="F F F"
O        0.04040000       1.39880000      -0.02050000
C       -0.00410000      -0.01410000       0.02870000
C       -1.42340000      -0.47900000       0.04690000
C       -2.52810000       0.27080000       0.02380000
C       -3.79590000      -0.56630000       0.05800000
O       -4.75060000      -0.22260000      -0.93940000
C       -3.26730000      -2.00460000      -0.01180000
C       -2.46020000      -2.40900000      -1.22330000
C       -1.75890000      -1.94130000       0.03740000
H        0.96190000       1.67090000       0.00500000
H        0.50940000      -0.46770000      -0.83830000
H        0.51150000      -0.40370000       0.92490000
H       -2.55130000       1.35070000      -0.04070000
H       -4.33930000      -0.41400000       0.99930000
H       -4.32560000      -0.34540000      -1.79560000
H       -3.81340000      -2.78280000       0.50680000
H       -2.43540000      -3.46820000      -1.45760000
H       -2.41970000      -1.75620000      -2.09050000
H       -1.16420000      -2.64630000       0.60880000
