16
Properties=species:S:1:pos:R:3 gdb_93479=T pbc="F F F"
O        0.16580000       1.31070000       0.32150000
C        0.02860000      -0.05100000       0.03860000
C       -1.44000000      -0.47260000      -0.00550000
N       -1.48290000      -1.87460000      -0.38850000
C       -0.83740000      -2.33050000      -1.51390000
N       -1.19430000      -3.41070000      -2.08940000
N        0.23490000      -1.50880000      -1.92430000
C        0.67960000      -0.36800000      -1.30580000
O        1.53050000       0.35680000      -1.78400000
H        0.87500000       1.62520000      -0.26140000
H        0.53840000      -0.67600000       0.79280000
H       -1.88910000      -0.36270000       0.98380000
H       -1.98400000       0.18680000      -0.69880000
H       -2.32200000      -2.39850000      -0.19280000
H       -0.57060000      -3.66330000      -2.85190000
H        0.68240000      -1.73850000      -2.80070000
