14
Properties=species:S:1:pos:R:3 gdb_10444=T pbc="F F F"
C       -0.15890000      -1.13260000       0.41490000
C       -0.07320000       0.02470000       0.10620000
C        0.03040000       1.43010000      -0.26690000
C        1.44640000       1.99180000      -0.13160000
C        1.62390000       3.40160000       0.27390000
O        1.83260000       2.34460000       1.20480000
C        2.46250000       1.35640000      -0.93650000
C        3.28700000       0.82490000      -1.62990000
H       -0.23100000      -2.15550000       0.69040000
H       -0.30050000       1.56530000      -1.30440000
H       -0.63140000       2.03360000       0.36440000
H        2.51760000       3.93510000      -0.04260000
H        0.74160000       4.01720000       0.44730000
H        4.02140000       0.34910000      -2.23210000
