17
Properties=species:S:1:pos:R:3 gdb_83171=T pbc="F F F"
C       -0.62070000       1.35340000       0.08720000
C       -0.10890000      -0.06660000      -0.00020000
C        0.71050000      -0.59600000      -1.17240000
C        1.29130000       0.33560000      -2.20700000
O        2.70190000       0.56490000      -1.98210000
C        3.11890000       0.91290000      -0.75160000
O        4.17480000       1.43300000      -0.56000000
O        2.25880000       0.66340000       0.27780000
C        1.34100000      -0.40520000       0.17690000
H        0.15080000       2.08570000      -0.15950000
H       -1.47320000       1.50940000      -0.58190000
H       -0.95180000       1.56920000       1.10760000
H       -0.78170000      -0.80930000       0.42020000
H        0.52240000      -1.61210000      -1.49920000
H        1.24330000      -0.09510000      -3.20770000
H        0.78720000       1.30650000      -2.23240000
H        1.64380000      -1.25300000       0.78260000
