17
Properties=species:S:1:pos:R:3 gdb_37750=T pbc="F F F"
C       -0.27750000       1.34780000       0.06820000
C        1.30720000       1.12970000       0.17640000
C        2.05900000       0.15330000       1.08540000
C        2.35480000      -1.03080000       0.49200000
C        1.57840000      -1.13940000      -0.75280000
C        0.49530000      -1.91060000      -1.05590000
C       -0.69570000      -1.00820000      -1.15640000
C       -0.28170000       0.27540000      -1.05360000
C        1.21630000       0.27780000      -1.10440000
H       -0.88560000       1.08840000       0.93680000
H       -0.51260000       2.37390000      -0.23350000
H        1.84270000       2.08150000       0.10370000
H        2.39840000       0.41810000       2.08270000
H        2.90040000      -1.83410000       0.97470000
H        0.38480000      -2.97200000      -0.86360000
H       -1.69450000      -1.39780000      -0.98420000
H        1.71410000       0.67670000      -1.99450000
