18
Properties=species:S:1:pos:R:3 gdb_30953=T pbc="F F F"
C       -0.48640000       1.19680000      -0.09530000
N        0.45430000       0.10280000       0.18460000
C        0.81210000      -0.68320000      -0.89620000
C        0.60250000      -1.98130000      -1.16070000
C       -0.07830000      -3.02570000      -0.35260000
N        1.16460000      -2.22740000      -2.41480000
C        1.73300000      -1.07790000      -2.92350000
N        2.33450000      -0.96900000      -4.03580000
O        1.51070000      -0.10130000      -1.98240000
H       -0.10710000       1.92860000      -0.82160000
H       -1.41500000       0.77310000      -0.48750000
H       -0.71410000       1.71520000       0.84020000
H        1.26620000       0.45170000       0.68410000
H       -0.94290000      -3.44510000      -0.88100000
H        0.59710000      -3.85720000      -0.11740000
H       -0.42350000      -2.58460000       0.58400000
H        1.21250000      -3.10700000      -2.89610000
H        2.65870000      -0.01550000      -4.17230000
