17
Properties=species:S:1:pos:R:3 gdb_78335=T pbc="F F F"
C       -0.07360000       1.42210000      -0.00220000
C        0.06310000      -0.07680000      -0.09190000
C        0.81070000      -0.70700000      -1.19510000
N        1.43650000      -0.59550000       0.20530000
C        1.31710000      -2.04700000       0.32550000
N        1.66970000      -2.84850000       1.22300000
C        0.75240000      -2.21730000      -1.06440000
C       -0.10990000      -3.23490000      -1.67060000
O        1.27680000      -3.11560000      -2.01460000
H        0.80110000       1.91690000      -0.43180000
H       -0.96610000       1.75630000      -0.54120000
H       -0.16510000       1.73730000       1.04140000
H       -0.76580000      -0.64140000       0.33410000
H        1.23190000      -0.16720000      -2.03470000
H        2.08400000      -2.34630000       2.01270000
H       -0.36940000      -4.12100000      -1.09480000
H       -0.81220000      -2.94420000      -2.45040000
