18
Properties=species:S:1:pos:R:3 gdb_66291=T pbc="F F F"
C        0.07430000       1.68320000       0.15890000
C        0.07100000       0.15330000       0.04480000
C        0.70480000      -0.43670000      -1.22440000
C        1.38060000      -1.74590000      -0.75730000
N        1.62170000      -1.49480000       0.65630000
C        0.90120000      -0.47430000       1.19730000
O        0.88310000      -0.12390000       2.35740000
C       -1.35470000      -0.35650000       0.25370000
O       -1.92410000      -1.12030000      -0.48290000
H        1.08900000       2.07070000       0.03130000
H       -0.56650000       2.13970000      -0.60190000
H       -0.27640000       1.98650000       1.14880000
H       -0.03760000      -0.62390000      -2.00110000
H        1.45750000       0.25390000      -1.61410000
H        0.72000000      -2.60930000      -0.90270000
H        2.31750000      -1.94060000      -1.28780000
H        2.13960000      -2.11940000       1.25430000
H       -1.84130000       0.03730000       1.17160000
