17
Properties=species:S:1:pos:R:3 gdb_69978=T pbc="F F F"
C       -0.05290000       1.54530000       0.06790000
C        0.14590000       0.06780000       0.00910000
O       -0.76940000      -0.79980000       0.67780000
C        0.62400000      -0.94370000       0.98230000
C        1.26370000      -1.79370000      -0.15240000
O        0.43190000      -2.82250000      -0.71180000
C       -0.10580000      -1.92790000      -1.71850000
C        0.74350000      -0.74870000      -1.17830000
O        1.51790000       0.03940000      -2.01870000
H        0.83800000       2.06150000      -0.29890000
H       -0.90010000       1.84760000      -0.55780000
H       -0.25600000       1.85990000       1.09490000
H        0.91030000      -0.85720000       2.02530000
H        2.31330000      -2.07200000      -0.02650000
H        0.18540000      -2.24420000      -2.73020000
H       -1.19280000      -1.83300000      -1.65140000
H        2.01790000      -0.53290000      -2.61090000
