11
Properties=species:S:1:pos:R:3 gdb_155=T pbc="F F F"
O        0.10160000       1.31830000       0.24980000
C        0.06560000      -0.01640000      -0.22280000
C       -1.34180000      -0.55560000      -0.24340000
C       -1.65200000      -1.93620000       0.14300000
O       -1.88200000      -0.85900000       1.05240000
H       -0.29980000       1.31230000       1.12630000
H        0.47820000       0.00410000      -1.23750000
H        0.69690000      -0.68150000       0.38690000
H       -2.03650000      -0.02660000      -0.89670000
H       -2.54670000      -2.41680000      -0.24950000
H       -0.84420000      -2.61410000       0.41640000
