18
Properties=species:S:1:pos:R:3 gdb_30103=T pbc="F F F"
C        0.12370000       1.55060000      -0.35610000
C        0.02130000       0.08390000      -0.01860000
N        1.26070000      -0.70250000      -0.01840000
C        0.53030000      -0.52750000       1.25310000
C        1.18390000       0.18510000       2.36130000
C        1.04380000       0.05900000       3.71220000
C        1.92230000       1.02220000       4.30600000
C        2.53020000       1.65820000       3.27280000
O        2.09250000       1.16160000       2.08380000
H        1.03450000       1.98270000       0.05910000
H        0.13920000       1.68870000      -1.44270000
H       -0.73810000       2.09790000       0.04090000
H       -0.86720000      -0.40640000      -0.41870000
H        1.10540000      -1.63720000      -0.38590000
H       -0.04750000      -1.37330000       1.62120000
H        0.39580000      -0.63720000       4.22160000
H        2.08050000       1.20680000       5.35690000
H        3.26650000       2.44180000       3.20670000
