16
Properties=species:S:1:pos:R:3 gdb_127480=T pbc="F F F"
C       -0.09970000       1.35740000      -0.02570000
N       -0.05540000      -0.08500000       0.04040000
N       -0.13650000      -0.80810000      -1.09730000
C       -0.07380000      -2.08330000      -0.70860000
N       -0.20510000      -3.11390000      -1.63690000
C        0.06080000      -2.19300000       0.68980000
C        0.07210000      -0.87900000       1.14350000
C        0.18110000      -0.36620000       2.45320000
C        0.27540000       0.06920000       3.57280000
H       -0.01170000       1.75450000       0.98580000
H        0.72420000       1.73330000      -0.63910000
H       -1.04500000       1.68640000      -0.46670000
H       -0.05110000      -2.78690000      -2.58190000
H        0.37900000      -3.91370000      -1.43570000
H        0.12750000      -3.08200000       1.29430000
H        0.35800000       0.44660000       4.56190000
