25
Properties=species:S:1:pos:R:3 gdb_102689=T pbc="F F F"
C        0.09900000       1.58340000      -0.11380000
C        0.04130000       0.05310000      -0.17250000
C       -1.36280000      -0.54840000       0.04860000
C       -2.27970000      -0.29290000      -1.16640000
C       -3.77500000      -0.49730000      -0.89980000
C       -1.28050000      -2.05600000       0.36650000
C       -0.70620000      -2.38730000       1.75680000
C       -0.80330000      -3.86470000       2.05950000
O        0.12210000      -4.57480000       2.35760000
H        1.12420000       1.93970000      -0.25410000
H       -0.51700000       2.05350000      -0.88640000
H       -0.25000000       1.95250000       0.85720000
H        0.42410000      -0.29590000      -1.14160000
H        0.73000000      -0.34420000       0.58150000
H       -1.81170000      -0.04670000       0.92040000
H       -2.13110000       0.73410000      -1.51770000
H       -1.95790000      -0.94180000      -1.99280000
H       -4.12570000       0.16460000      -0.10000000
H       -4.36440000      -0.27530000      -1.79500000
H       -4.01000000      -1.52480000      -0.60490000
H       -2.28150000      -2.49840000       0.29740000
H       -0.67470000      -2.55140000      -0.40420000
H        0.33830000      -2.08560000       1.86540000
H       -1.29610000      -1.85720000       2.51960000
H       -1.83710000      -4.27920000       1.97900000
