18
Properties=species:S:1:pos:R:3 gdb_5846=T pbc="F F F"
C       -0.03750000       1.34170000       0.04990000
O        0.02710000      -0.08660000      -0.03760000
C        0.65340000      -0.56730000      -1.13650000
O        1.12880000       0.12930000      -1.98980000
C        0.65520000      -2.10360000      -1.11250000
C        1.41690000      -2.59630000       0.13090000
C       -0.79550000      -2.61790000      -1.12320000
O        1.33070000      -2.49040000      -2.29750000
H        0.96680000       1.77240000       0.07410000
H       -0.57480000       1.75670000      -0.80650000
H       -0.56880000       1.55940000       0.97650000
H        0.95200000      -2.23920000       1.05210000
H        1.42080000      -3.69230000       0.14920000
H        2.45380000      -2.25080000       0.09790000
H       -1.30480000      -2.28760000      -2.03260000
H       -0.79710000      -3.71390000      -1.10770000
H       -1.35220000      -2.26150000      -0.25410000
H        1.34770000      -3.45300000      -2.31270000
