23
Properties=species:S:1:pos:R:3 gdb_122222=T pbc="F F F"
C       -0.45610000       1.63540000      -1.09640000
C       -0.26880000       0.22220000      -0.57050000
O       -1.53480000      -0.39680000      -0.48450000
C       -1.47710000      -1.71650000       0.00570000
C       -2.87780000      -2.26840000       0.12150000
C       -3.56390000      -2.77080000      -1.10950000
C       -3.08880000      -3.75530000      -0.06010000
O       -3.72760000      -1.60780000       1.01530000
C       -3.40280000      -1.77680000       2.38020000
H        0.50890000       2.14510000      -1.17540000
H       -0.92240000       1.61680000      -2.08540000
H       -1.10080000       2.21040000      -0.42580000
H        0.39470000      -0.35430000      -1.23880000
H        0.21610000       0.23930000       0.42110000
H       -0.89100000      -2.36230000      -0.67000000
H       -0.96760000      -1.73910000       0.98450000
H       -4.62950000      -2.58580000      -1.17100000
H       -3.03210000      -2.71230000      -2.05230000
H       -2.23700000      -4.38940000      -0.28220000
H       -3.84680000      -4.21550000       0.56340000
H       -4.21410000      -1.32380000       2.95510000
H       -3.32220000      -2.83940000       2.65170000
H       -2.46360000      -1.27540000       2.65290000
