21
Properties=species:S:1:pos:R:3 gdb_37051=T pbc="F F F"
C       -0.02810000       1.58690000      -0.22040000
C        1.54700000       1.60350000      -0.24140000
C        1.51660000       0.13550000       0.21600000
C        2.35970000      -0.68290000       1.14530000
C        1.50010000      -1.83400000       1.71900000
C        0.14350000      -1.33900000       2.26020000
C       -0.77530000      -0.72590000       1.17360000
C        0.04440000       0.11970000       0.23660000
O        0.77640000      -0.58570000      -0.78330000
H       -0.43980000       2.25620000       0.53970000
H       -0.53950000       1.75810000      -1.17090000
H        2.02760000       1.78310000      -1.20610000
H        1.96560000       2.28250000       0.50600000
H        3.25200000      -1.07770000       0.64400000
H        2.71280000      -0.03710000       1.96020000
H        1.33220000      -2.57890000       0.93410000
H        2.05400000      -2.33130000       2.52200000
H       -0.37820000      -2.16230000       2.75980000
H        0.33280000      -0.57960000       3.03110000
H       -1.27820000      -1.51630000       0.60460000
H       -1.56130000      -0.12510000       1.64360000
