17
Properties=species:S:1:pos:R:3 gdb_67589=T pbc="F F F"
C       -0.03420000       1.52750000       0.04960000
C       -0.02950000       0.03270000      -0.02300000
C        1.00280000      -0.86840000      -0.66830000
O        0.42930000      -1.88780000      -1.44470000
C       -0.74970000      -2.13210000      -0.72960000
C       -0.56510000      -1.92680000       0.77820000
C        0.68570000      -1.03180000       0.81180000
C       -1.28690000      -0.88770000      -0.05990000
O       -2.59870000      -0.47500000       0.00570000
H        0.97850000       1.91540000       0.20070000
H       -0.42450000       1.97260000      -0.87330000
H       -0.65600000       1.88180000       0.87890000
H        1.95640000      -0.51290000      -1.03710000
H       -1.38610000      -2.90730000      -1.13560000
H       -0.91680000      -2.61470000       1.53350000
H        1.40430000      -0.93260000       1.61360000
H       -2.91410000      -0.31380000      -0.89110000
