18
Properties=species:S:1:pos:R:3 gdb_68460=T pbc="F F F"
C       -0.11810000       1.52440000       0.02150000
C        0.03720000       0.02810000      -0.00220000
C        0.78930000      -0.68820000      -1.15400000
C       -0.33560000      -1.71730000      -0.95510000
C       -0.00610000      -2.67580000       0.17400000
O        0.52240000      -1.96230000       1.30810000
C        0.48700000      -0.59540000       1.30690000
N        0.83320000       0.09000000       2.31020000
O       -1.18890000      -0.68730000      -0.39080000
H        0.83900000       1.99990000       0.24800000
H       -0.47840000       1.87210000      -0.95020000
H       -0.82860000       1.82120000       0.79640000
H        0.68690000      -0.14120000      -2.09220000
H        1.82410000      -0.99730000      -0.99370000
H       -0.78090000      -2.22390000      -1.81560000
H       -0.91180000      -3.19960000       0.49950000
H        0.74560000      -3.41500000      -0.12520000
H        1.10540000      -0.52230000       3.08250000
