14
Properties=species:S:1:pos:R:3 gdb_25333=T pbc="F F F"
O        0.05170000      -0.05850000      -0.00160000
C        0.01560000       1.15160000       0.00850000
C        1.23820000       1.97980000       0.00170000
C        1.22850000       3.33890000       0.01340000
C        2.47390000       4.12100000       0.00620000
O        2.48990000       5.34650000       0.01590000
C        3.67650000       3.28410000      -0.01480000
C        3.60980000       1.92920000      -0.02560000
N        2.41220000       1.27800000      -0.01760000
H       -0.93550000       1.71760000       0.02460000
H        0.28520000       3.87410000       0.02850000
H        4.63880000       3.78070000      -0.02160000
H        4.48790000       1.29410000      -0.04100000
H        2.33570000       0.27010000      -0.02510000
