18
Properties=species:S:1:pos:R:3 gdb_107295=T pbc="F F F"
O        0.25690000       1.35330000       0.10430000
C        0.03270000      -0.03060000      -0.12130000
C       -1.41710000      -0.39190000       0.03220000
C       -2.03190000      -0.88820000       1.27700000
N       -1.89480000      -1.84230000       0.15360000
C       -2.95090000      -1.54140000      -0.90000000
C       -4.30910000      -0.96100000      -0.48320000
O       -3.77200000       0.39080000      -0.50580000
C       -2.50440000      -0.08380000      -1.01730000
H       -0.07840000       1.56330000       0.98260000
H        0.36950000      -0.21900000      -1.14680000
H        0.63610000      -0.66900000       0.54260000
H       -1.36470000      -1.14200000       2.09610000
H       -3.00380000      -0.51760000       1.58270000
H       -2.91050000      -2.27880000      -1.69880000
H       -5.09070000      -1.08790000      -1.24270000
H       -4.71070000      -1.24390000       0.49650000
H       -2.18500000       0.42620000      -1.92780000
