13
Properties=species:S:1:pos:R:3 gdb_127749=T pbc="F F F"
C       -0.07750000       1.42560000       0.01600000
N       -0.00760000      -0.02280000       0.07900000
N        0.00300000      -0.75260000      -1.02880000
N        0.07020000      -2.02070000      -0.68710000
C        0.10320000      -2.10330000       0.65670000
O        0.17190000      -3.25720000       1.32150000
C        0.05470000      -0.82390000       1.19360000
C        0.06060000      -0.34030000       2.51310000
N        0.06460000       0.08070000       3.59300000
H        0.80430000       1.86740000       0.48620000
H       -0.11420000       1.69590000      -1.03850000
H       -0.97500000       1.78330000       0.52650000
H        0.19100000      -3.96760000       0.66600000
