22
Properties=species:S:1:pos:R:3 gdb_112261=T pbc="F F F"
C       -0.06620000       1.65560000      -0.20320000
C        0.02060000       0.15740000       0.10700000
C       -1.34190000      -0.52670000       0.08730000
N       -1.96800000      -0.65490000      -1.23900000
C       -2.08500000      -2.02270000      -1.21820000
O       -2.53430000      -2.81580000      -2.00500000
C       -1.41830000      -2.09400000       0.17880000
C       -0.14580000      -2.93240000       0.28530000
C       -0.45320000      -4.43340000       0.21360000
H        0.92040000       2.12610000      -0.15980000
H       -0.46900000       1.83020000      -1.20690000
H       -0.71510000       2.17340000       0.51200000
H        0.68530000      -0.33050000      -0.61380000
H        0.46470000       0.01210000       1.09980000
H       -2.00590000      -0.03690000       0.81260000
H       -2.34210000       0.02980000      -1.87960000
H       -2.14150000      -2.41680000       0.93560000
H        0.54540000      -2.66440000      -0.52200000
H        0.36880000      -2.69910000       1.22600000
H        0.46710000      -5.02430000       0.24520000
H       -1.08140000      -4.74640000       1.05490000
H       -0.98870000      -4.67240000      -0.70920000
