14
Properties=species:S:1:pos:R:3 gdb_125506=T pbc="F F F"
C       -0.06790000       1.50460000      -0.10150000
C       -0.00470000       0.01930000      -0.01160000
N       -0.06790000      -0.78670000      -1.05270000
N        0.02500000      -2.02720000      -0.53020000
C       -0.00830000      -3.15090000      -1.36930000
O        0.06790000      -4.28280000      -0.98830000
N        0.14730000      -2.07450000       0.81530000
C        0.12960000      -0.80470000       1.14990000
O        0.22500000      -0.35540000       2.40670000
H        0.83660000       1.96140000       0.31360000
H       -0.17150000       1.81270000      -1.14310000
H       -0.91670000       1.89620000       0.46880000
H       -0.11420000      -2.81620000      -2.41360000
H        0.30580000      -1.11900000       2.99360000
