16
Properties=species:S:1:pos:R:3 gdb_49006=T pbc="F F F"
O       -0.72550000       0.94270000       0.70150000
C        0.19440000       0.85840000      -0.07290000
C        1.38520000       1.76900000      -0.06820000
C        1.55600000       2.80310000       1.07540000
C        1.71830000       3.94960000       0.03550000
C        1.53230000       2.93730000      -1.13470000
C        2.84630000       2.23640000      -1.53010000
O        3.76190000       2.47540000      -2.26540000
N        2.60920000       1.20160000      -0.63570000
H        0.21540000       0.09670000      -0.88400000
H        0.64660000       2.88040000       1.67310000
H        2.40510000       2.61520000       1.73510000
H        0.91730000       4.68860000       0.08210000
H        2.67490000       4.47530000       0.02830000
H        0.80190000       3.14600000      -1.91410000
H        3.28220000       0.58190000      -0.20210000
