18
Properties=species:S:1:pos:R:3 gdb_89092=T pbc="F F F"
C       -0.57990000       1.28890000       0.54410000
C        0.04340000      -0.05540000       0.26180000
O        1.43470000      -0.09090000      -0.07260000
C        1.01460000      -0.74150000       1.12910000
C        1.51160000      -0.18510000       2.43450000
O        2.75660000      -0.81810000       2.71800000
C        3.37070000      -0.36940000       3.89460000
C        2.62750000      -0.74380000       5.11680000
N        2.03050000      -1.03490000       6.06210000
H        0.05760000       1.91600000       1.17040000
H       -0.75750000       1.82210000      -0.39540000
H       -1.54650000       1.16270000       1.04360000
H       -0.56850000      -0.70390000      -0.36900000
H        1.05650000      -1.83100000       1.08730000
H        1.64830000       0.90240000       2.36870000
H        0.78810000      -0.39900000       3.23650000
H        4.36250000      -0.82960000       3.93270000
H        3.50550000       0.72380000       3.89870000
