17
Properties=species:S:1:pos:R:3 gdb_10872=T pbc="F F F"
C       -0.09030000       1.55920000       0.00230000
C       -0.01420000       0.04040000      -0.00420000
C        1.23410000      -0.64660000      -0.63820000
N        2.01790000      -0.16090000       0.57970000
C        0.70430000      -0.68000000       1.19200000
C        0.40830000      -0.62130000       2.65810000
C        0.90430000      -1.87660000       0.23150000
O        0.97520000      -3.06800000       0.23600000
H        0.86850000       2.00350000       0.27260000
H       -0.38160000       1.93060000      -0.98560000
H       -0.84750000       1.90050000       0.71650000
H       -0.96790000      -0.41420000      -0.28770000
H        1.62910000      -0.55590000      -1.64800000
H        2.79600000      -0.79280000       0.79110000
H        0.43840000       0.40950000       3.02440000
H       -0.58710000      -1.03010000       2.85790000
H        1.13300000      -1.21140000       3.22820000
