19
Properties=species:S:1:pos:R:3 gdb_47557=T pbc="F F F"
O        0.00990000      -0.09670000      -0.00430000
C        0.02430000       1.11190000       0.02590000
C       -1.26430000       1.93030000       0.05640000
C       -1.53690000       2.80180000      -1.19160000
C       -0.46150000       3.86270000      -1.48800000
C        0.77630000       3.26510000      -2.13270000
O        2.06190000       3.66680000      -1.64430000
C        1.64490000       2.31890000      -1.41710000
C        1.33960000       1.89240000       0.01270000
H       -2.08620000       1.22380000       0.19820000
H       -1.22620000       2.58670000       0.93680000
H       -1.66410000       2.15230000      -2.06680000
H       -2.50070000       3.29940000      -1.03890000
H       -0.87570000       4.62580000      -2.15590000
H       -0.17210000       4.38040000      -0.56730000
H        0.73110000       3.17190000      -3.21890000
H        2.18290000       1.57730000      -2.00690000
H        1.26870000       2.78550000       0.63880000
H        2.13300000       1.24860000       0.39880000
