17
Properties=species:S:1:pos:R:3 gdb_79437=T pbc="F F F"
C       -0.14060000       1.52500000       0.05550000
C       -0.02290000       0.00500000       0.04300000
C        0.76750000      -0.55480000      -1.16450000
C        2.09840000      -0.40500000      -0.39130000
O        2.57980000      -1.70260000      -0.79650000
C        1.15970000      -2.05310000      -0.86680000
C        0.87210000      -2.06500000       0.64830000
O        0.51870000      -2.94070000       1.38270000
C        1.16870000      -0.58230000       0.88560000
H        0.81960000       2.01100000      -0.14610000
H       -0.85160000       1.86300000      -0.70630000
H       -0.49680000       1.88050000       1.02740000
H       -0.99820000      -0.45020000       0.24760000
H        0.61000000      -0.25070000      -2.19840000
H        2.82910000       0.39840000      -0.44830000
H        0.92780000      -2.91370000      -1.48920000
H        1.41020000      -0.24230000       1.88880000
