14
Properties=species:S:1:pos:R:3 gdb_45918=T pbc="F F F"
N       -0.10440000       1.34450000      -0.00770000
C       -0.01480000       0.08040000       0.06070000
C       -1.26440000      -0.76330000      -0.00060000
O       -1.18330000      -1.95600000       0.78150000
C       -0.06840000      -2.73130000       0.67650000
N       -0.05240000      -3.95620000       0.97780000
C        1.23800000      -2.05110000       0.29110000
O        2.28710000      -2.63420000       0.19740000
N        1.15140000      -0.67500000       0.11600000
H        0.81120000       1.79830000      -0.02400000
H       -2.10420000      -0.18830000       0.38480000
H       -1.46750000      -1.02470000      -1.04840000
H       -0.99060000      -4.26320000       1.24520000
H        2.04450000      -0.21260000      -0.00410000
