14
Properties=species:S:1:pos:R:3 gdb_29086=T pbc="F F F"
C        0.03360000       1.53500000      -0.01230000
C       -0.09430000       0.05360000       0.07460000
C       -1.15540000      -0.68190000      -0.26470000
N       -1.12850000      -2.06770000      -0.12730000
C       -0.05390000      -2.77370000       0.35000000
O       -0.03550000      -3.97610000       0.46710000
C        1.15540000      -1.90860000       0.73530000
O        2.16610000      -2.37040000       1.16670000
O        1.04390000      -0.55040000       0.56620000
H        0.86510000       1.81610000      -0.66790000
H       -0.88480000       1.97650000      -0.40470000
H        0.23630000       1.96690000       0.97390000
H       -2.06340000      -0.24530000      -0.65230000
H       -1.93320000      -2.62080000      -0.38580000
