13
Properties=species:S:1:pos:R:3 gdb_627=T pbc="F F F"
C       -0.36800000       1.47620000       0.08210000
C        0.17040000       0.06840000      -0.04620000
O        0.56020000      -0.57440000       0.90750000
C        0.20260000      -0.51980000      -1.42440000
C        1.48960000      -1.17400000      -1.83210000
N        0.31800000      -1.98150000      -1.52970000
H        0.15550000       2.15080000      -0.60470000
H       -1.42680000       1.49440000      -0.20220000
H       -0.25990000       1.82770000       1.10840000
H       -0.40760000      -0.03930000      -2.18360000
H        1.78260000      -1.14320000      -2.87770000
H        2.30220000      -1.14370000      -1.11150000
H        0.40720000      -2.33050000      -0.57390000
