18
Properties=species:S:1:pos:R:3 gdb_12260=T pbc="F F F"
C        0.20540000       1.62630000       0.06120000
C        0.10540000       0.10800000       0.02970000
C        0.57760000      -0.70730000      -1.22390000
C        1.31540000      -1.72800000      -0.29950000
C        2.77470000      -2.11370000      -0.54550000
O        3.31730000      -2.76590000       0.58390000
C        1.12860000      -0.70890000       0.82800000
O        1.73550000      -0.51880000       1.85020000
H        1.20610000       1.96020000      -0.23130000
H       -0.51790000       2.08370000      -0.62090000
H        0.01010000       2.00410000       1.06910000
H       -0.90200000      -0.21710000       0.32090000
H       -0.20660000      -1.10900000      -1.86600000
H        1.27960000      -0.13230000      -1.83520000
H        0.72090000      -2.62980000      -0.11670000
H        2.85890000      -2.80810000      -1.38830000
H        3.34900000      -1.20940000      -0.80900000
H        3.19010000      -2.16930000       1.33400000
