17
Properties=species:S:1:pos:R:3 gdb_2180=T pbc="F F F"
O        0.06270000       1.34910000      -0.20850000
C        0.00680000      -0.05190000      -0.02950000
C        0.71730000      -0.58960000       1.22260000
C        0.11540000      -1.99200000       1.37920000
C       -1.38350000      -1.78510000       1.06110000
C       -1.45740000      -0.58510000       0.09380000
O       -2.29800000       0.41350000       0.67250000
H       -0.38770000       1.72890000       0.55600000
H        0.47140000      -0.48110000      -0.92450000
H        1.80620000      -0.57560000       1.13220000
H        0.44520000       0.03540000       2.08400000
H        0.57080000      -2.67430000       0.65120000
H        0.27850000      -2.42600000       2.36900000
H       -1.85920000      -2.68170000       0.65670000
H       -1.93250000      -1.50550000       1.96550000
H       -1.85210000      -0.87070000      -0.88960000
H       -2.40880000       1.10070000       0.00560000
