20
Properties=species:S:1:pos:R:3 gdb_95547=T pbc="F F F"
C        0.24320000       1.55300000       0.00350000
C       -0.00050000       0.03380000      -0.00240000
C        0.67790000      -0.58510000      -1.21940000
O        0.26030000      -1.91540000      -1.54110000
C        0.54850000      -2.96210000      -0.72360000
N        0.79200000      -3.05780000       0.50870000
C        0.77450000      -2.04200000       1.50290000
C        1.85750000      -0.98510000       1.61090000
C        0.43010000      -0.57870000       1.32010000
H        1.31310000       1.77910000       0.07190000
H       -0.14760000       2.02490000      -0.90390000
H       -0.24780000       2.01970000       0.86240000
H       -1.07870000      -0.14210000      -0.12140000
H        0.42430000      -0.00650000      -2.11160000
H        1.77090000      -0.56660000      -1.11610000
H        0.52100000      -3.87300000      -1.32250000
H        0.47230000      -2.46430000       2.45760000
H        2.27450000      -0.76920000       2.58850000
H        2.58340000      -0.95570000       0.80640000
H       -0.09490000      -0.14090000       2.16700000
