16
Properties=species:S:1:pos:R:3 gdb_7077=T pbc="F F F"
O       -0.25430000       1.44850000       0.09100000
C        0.00250000       0.05730000       0.00450000
C        0.79370000      -0.28710000      -1.27190000
C        0.06520000       0.13050000      -2.53400000
O       -0.04220000      -0.56410000      -3.51220000
C        0.72040000      -0.48380000       1.26020000
C       -0.00130000      -0.21790000       2.49700000
C       -0.60470000      -0.00320000       3.51340000
H        0.57100000       1.89820000       0.30630000
H       -0.98970000      -0.40500000      -0.04830000
H        1.75140000       0.25590000      -1.24270000
H        1.01880000      -1.35570000      -1.33820000
H       -0.37460000       1.14930000      -2.49340000
H        0.87500000      -1.56360000       1.14230000
H        1.72560000      -0.03910000       1.30980000
H       -1.13800000       0.18860000       4.41130000
