19
Properties=species:S:1:pos:R:3 gdb_111738=T pbc="F F F"
C       -0.45330000       0.95640000      -0.20220000
O        0.57020000       0.01480000       0.07080000
C        1.00360000      -0.65780000      -1.05970000
C        1.65430000      -1.97210000      -0.93610000
C        1.03540000      -2.81370000       0.18680000
C       -0.37600000      -2.66990000      -0.46120000
C        0.22530000      -1.85050000      -1.60520000
C       -0.11300000      -1.97630000      -3.02230000
O       -1.02220000      -2.64760000      -3.45600000
H       -0.10310000       1.74070000      -0.88910000
H       -1.33660000       0.47470000      -0.64300000
H       -0.72800000       1.41450000       0.75000000
H        1.40970000      -0.01100000      -1.84180000
H        2.59110000      -2.18440000      -1.43840000
H        1.39580000      -3.84340000       0.17610000
H        1.15580000      -2.40000000       1.19010000
H       -0.78430000      -3.61530000      -0.81990000
H       -1.13300000      -2.15800000       0.13750000
H        0.55010000      -1.39530000      -3.70700000
