17
Properties=species:S:1:pos:R:3 gdb_29971=T pbc="F F F"
C       -0.16500000       1.45420000       0.16300000
N       -0.01850000       0.01690000       0.04930000
C        0.10060000      -0.70330000      -1.10120000
N        0.23340000      -1.99010000      -0.87280000
C        0.20120000      -2.12180000       0.49860000
C        0.28570000      -3.46650000       1.15270000
C       -1.01680000      -4.24000000       0.99900000
O       -1.58310000      -4.80720000       1.89680000
C        0.04070000      -0.89030000       1.08480000
H        0.67740000       1.89200000       0.70710000
H       -0.19560000       1.88690000      -0.83860000
H       -1.09300000       1.71120000       0.68240000
H        0.08740000      -0.22770000      -2.07130000
H        1.07040000      -4.05510000       0.65810000
H        0.52450000      -3.39490000       2.21650000
H       -1.41960000      -4.23790000      -0.03750000
H       -0.03070000      -0.58040000       2.11460000
