18
Properties=species:S:1:pos:R:3 gdb_124454=T pbc="F F F"
C       -0.00110000       1.52820000      -0.02590000
C       -0.02360000      -0.01660000      -0.00260000
C        0.77120000      -0.52870000       1.21940000
C       -1.47270000      -0.52680000       0.05320000
C        0.65240000      -0.51730000      -1.24950000
N        0.12090000      -1.26950000      -2.17010000
O        1.10580000      -1.45520000      -3.08330000
N        2.24250000      -0.77400000      -2.65900000
N        1.97170000      -0.21680000      -1.56790000
H        1.02210000       1.90750000      -0.09160000
H       -0.56730000       1.91830000      -0.87720000
H       -0.45420000       1.91710000       0.89110000
H        0.31980000      -0.14500000       2.13950000
H        0.76200000      -1.62200000       1.26620000
H        1.81170000      -0.19570000       1.18180000
H       -2.05130000      -0.18050000      -0.80740000
H       -1.51110000      -1.61940000       0.06360000
H       -1.95490000      -0.15710000       0.96300000
