18
Properties=species:S:1:pos:R:3 gdb_87376=T pbc="F F F"
C       -0.29610000       1.48990000       0.01620000
C        0.11480000       0.03680000      -0.02630000
O        1.38850000      -0.15920000      -0.75520000
C        1.99280000      -0.71590000       0.35500000
N        3.15330000      -1.16020000       0.53260000
C        0.77730000      -0.58730000       1.20020000
C        0.66660000      -0.24940000       2.66590000
C        0.20760000      -1.58850000       2.15470000
O       -1.15930000      -1.82880000       1.99930000
H        0.48590000       2.10520000       0.47000000
H       -0.49220000       1.86070000      -0.99420000
H       -1.21440000       1.60000000       0.60250000
H       -0.65790000      -0.59270000      -0.47600000
H        3.71710000      -1.08320000      -0.31490000
H        1.59030000      -0.19450000       3.23180000
H       -0.10420000       0.46150000       2.94570000
H        0.82280000      -2.46010000       2.37470000
H       -1.53260000      -2.00980000       2.86850000
