11
Properties=species:S:1:pos:R:3 gdb_130861=T pbc="F F F"
O       -0.22770000      -0.00600000      -0.00190000
C       -0.23350000       1.18840000       0.05720000
C        1.03450000       2.03780000      -0.20740000
C        0.78580000       3.47590000      -0.07580000
C        1.76560000       4.34850000      -0.27360000
O        2.62740000       5.09050000      -0.45190000
N        4.81720000       2.59780000       0.58350000
N        5.52320000       1.77510000       0.40560000
O        2.08710000       1.51150000      -0.48980000
H       -1.15090000       1.77090000       0.30670000
H       -0.19220000       3.86290000       0.18090000
