19
Properties=species:S:1:pos:R:3 gdb_79982=T pbc="F F F"
C       -0.14500000       1.61190000      -0.00500000
C        0.02760000       0.10120000       0.01190000
C        1.19230000      -0.57700000      -0.79240000
C        2.42700000      -0.04330000      -0.09030000
C        2.10150000      -0.06350000       1.21540000
C        0.68200000      -0.61160000       1.25990000
C       -0.03110000      -0.81470000       2.57340000
C        0.94160000      -1.77530000       0.21150000
O        0.89780000      -2.95990000       0.18880000
H        0.79080000       2.12750000       0.22180000
H       -0.49290000       1.94740000      -0.98740000
H       -0.89460000       1.92010000       0.73170000
H       -0.92450000      -0.39020000      -0.22860000
H        1.18250000      -0.68790000      -1.87420000
H        3.37840000       0.17190000      -0.55530000
H        2.72140000       0.13220000       2.07950000
H       -0.24050000       0.14260000       3.06320000
H       -0.98250000      -1.33580000       2.42900000
H        0.57400000      -1.41510000       3.26030000
