21
Properties=species:S:1:pos:R:3 gdb_119637=T pbc="F F F"
C        0.04470000       1.54420000       0.12780000
C       -0.02210000       0.01960000       0.01160000
C       -1.46340000      -0.50800000      -0.04630000
C       -1.53170000      -2.00430000      -0.11220000
C       -0.98440000      -2.86570000      -1.29060000
C       -1.88940000      -3.96540000      -0.74250000
C       -1.87020000      -3.74620000       0.78070000
O       -0.96750000      -2.68160000       1.06240000
C       -2.80160000      -2.94900000      -0.05930000
H        1.08080000       1.89420000       0.16900000
H       -0.43750000       2.03040000      -0.72790000
H       -0.46120000       1.89460000       1.03430000
H        0.51940000      -0.30550000      -0.88550000
H        0.48710000      -0.44420000       0.86340000
H       -2.01720000      -0.17060000       0.83880000
H       -1.98250000      -0.09590000      -0.92180000
H       -1.34140000      -2.49730000      -2.25630000
H        0.09800000      -3.02770000      -1.31430000
H       -2.16390000      -4.91040000      -1.19350000
H       -2.02940000      -4.51630000       1.52370000
H       -3.87050000      -2.78640000      -0.06210000
