22
Properties=species:S:1:pos:R:3 gdb_117639=T pbc="F F F"
C        0.17860000       1.59570000      -0.06110000
C       -0.01350000       0.07710000      -0.00720000
C        0.67360000      -0.55180000       1.20980000
C        0.68010000      -2.09160000       1.24240000
C       -0.72200000      -2.70790000       1.18120000
O        1.39580000      -2.62840000       0.11900000
C        1.32100000      -2.54660000       2.57860000
N        2.28700000      -3.49370000       2.44350000
O        0.96600000      -2.08560000       3.64800000
H        1.24000000       1.86060000      -0.12670000
H       -0.32710000       2.02970000      -0.92910000
H       -0.22480000       2.07750000       0.83630000
H       -1.08570000      -0.14850000       0.01430000
H        0.37720000      -0.38120000      -0.92370000
H        1.72120000      -0.21290000       1.24730000
H        0.22010000      -0.20030000       2.14110000
H       -1.22860000      -2.42090000       0.25760000
H       -0.65090000      -3.79930000       1.20340000
H       -1.31070000      -2.38010000       2.04040000
H        2.17590000      -2.07970000      -0.01990000
H        2.42690000      -3.92150000       1.54350000
H        2.65500000      -3.92400000       3.27580000
