22
Properties=species:S:1:pos:R:3 gdb_118506=T pbc="F F F"
C        0.30180000       1.17680000       0.27340000
O        0.04540000      -0.19050000       0.05720000
C        0.62600000      -0.67930000      -1.13350000
C        0.25930000      -2.15560000      -1.29390000
C       -1.26070000      -2.33870000      -1.45560000
O       -1.66630000      -3.68940000      -1.24450000
C        1.03580000      -2.76120000      -2.45110000
C        2.18250000      -3.67380000      -2.20540000
N        0.92550000      -4.19160000      -2.76450000
H        1.38100000       1.38150000       0.35470000
H       -0.10460000       1.80220000      -0.53720000
H       -0.18240000       1.45680000       1.21200000
H        0.26570000      -0.09930000      -2.00220000
H        1.72240000      -0.56520000      -1.10380000
H        0.54860000      -2.66310000      -0.36270000
H       -1.78660000      -1.65720000      -0.77630000
H       -1.56140000      -2.09190000      -2.48010000
H       -1.66640000      -3.84530000      -0.29490000
H        1.06480000      -2.13300000      -3.34240000
H        3.02870000      -3.69260000      -2.88690000
H        2.43430000      -3.89860000      -1.17090000
H        0.35680000      -4.64120000      -2.05170000
