18
Properties=species:S:1:pos:R:3 gdb_92980=T pbc="F F F"
C       -0.25350000       1.60100000       0.01770000
C        0.11690000       0.12970000      -0.05430000
O        1.25930000      -0.03200000      -0.94700000
C        2.11230000      -0.84980000      -0.30200000
N        1.85440000      -1.24840000       0.87340000
C        0.59830000      -0.57920000       1.25890000
C        0.81060000       0.34800000       2.44380000
C        1.97040000       0.23250000       3.33470000
O        1.88970000       1.27650000       2.35640000
H        0.55410000       2.18760000       0.45940000
H       -0.46140000       1.98190000      -0.98570000
H       -1.15660000       1.73480000       0.62190000
H       -0.70240000      -0.44110000      -0.50600000
H        2.99500000      -1.11940000      -0.87210000
H       -0.13380000      -1.33400000       1.57000000
H       -0.10840000       0.77110000       2.85370000
H        1.88380000       0.56110000       4.36930000
H        2.71210000      -0.53340000       3.12790000
