18
Properties=species:S:1:pos:R:3 gdb_14430=T pbc="F F F"
C       -0.02870000       1.45720000      -0.06900000
C       -0.00370000      -0.05070000      -0.03840000
C        0.55670000      -0.89760000      -1.25050000
C       -0.24310000      -2.01330000      -0.57030000
C        0.42980000      -2.77430000       0.31630000
C        0.25910000      -2.19320000       1.71640000
C       -0.29510000      -0.80650000       1.33420000
C       -1.15840000      -0.99720000       0.13820000
H        0.96790000       1.87840000       0.10680000
H       -0.37530000       1.82120000      -1.04350000
H       -0.70030000       1.86240000       0.69460000
H        0.14250000      -0.47900000      -2.17670000
H        1.63480000      -1.05320000      -1.35950000
H        1.35220000      -3.28480000       0.05200000
H       -0.43060000      -2.70310000       2.40550000
H        1.24030000      -2.17590000       2.20710000
H       -0.59770000      -0.11670000       2.12060000
H       -2.22300000      -0.84470000       0.01060000
