20
Properties=species:S:1:pos:R:3 gdb_64109=T pbc="F F F"
C       -0.03230000       1.56330000      -0.02800000
C       -0.00880000       0.02650000      -0.00400000
C       -1.45560000      -0.51460000       0.03530000
C        0.79370000      -0.57030000      -1.20130000
C        1.58200000      -1.77990000      -0.64400000
C        1.61400000      -1.48950000       0.84730000
C        0.76160000      -0.51310000       1.18280000
C        2.43130000      -2.22080000       1.75180000
N        3.11210000      -2.83300000       2.46220000
H        0.98130000       1.97580000      -0.00980000
H       -0.52910000       1.92590000      -0.93440000
H       -0.57750000       1.96570000       0.83270000
H       -2.02570000      -0.13810000      -0.82100000
H       -1.47300000      -1.60830000       0.00330000
H       -1.97200000      -0.19790000       0.94760000
H        0.14380000      -0.84260000      -2.03710000
H        1.49940000       0.18080000      -1.56950000
H        1.07640000      -2.73530000      -0.83140000
H        2.58400000      -1.86840000      -1.07380000
H        0.59240000      -0.16420000       2.19590000
