18
Properties=species:S:1:pos:R:3 gdb_58853=T pbc="F F F"
C        0.03910000       1.50870000       0.05130000
C        0.04060000      -0.01930000       0.00760000
O        0.75940000      -0.59320000       1.09550000
C       -1.36890000      -0.55960000      -0.07050000
C       -2.19290000      -1.03750000       1.13110000
C       -1.91340000      -1.97280000      -0.00570000
N       -2.77530000      -1.69350000      -1.16120000
C       -2.35860000      -0.35080000      -1.21550000
O       -2.68550000       0.56610000      -1.91670000
H        1.06340000       1.89120000       0.04610000
H       -0.50310000       1.91410000      -0.80760000
H       -0.46490000       1.86550000       0.95850000
H        0.58050000      -0.34810000      -0.88930000
H        0.55460000      -0.07830000       1.88350000
H       -1.60410000      -1.20080000       2.02910000
H       -3.19950000      -0.66510000       1.29860000
H       -1.36040000      -2.89930000       0.06690000
H       -3.74890000      -1.97160000      -1.22250000
