18
Properties=species:S:1:pos:R:3 gdb_11303=T pbc="F F F"
C       -0.11420000       1.46470000       0.05770000
C        0.11110000      -0.03500000       0.09750000
C        0.65610000      -0.66540000      -1.19250000
C        1.37370000      -1.93510000      -0.69140000
C        1.61410000      -1.61970000       0.82460000
O        1.12530000      -0.32270000       1.06600000
C        0.92470000      -2.67230000       1.68180000
O       -0.06720000      -2.48880000       2.33520000
H        0.80990000       1.98360000      -0.21570000
H       -0.88670000       1.71450000      -0.67600000
H       -0.43870000       1.82990000       1.03570000
H       -0.81920000      -0.54350000       0.39340000
H       -0.12840000      -0.88260000      -1.92140000
H        1.37180000       0.02080000      -1.65700000
H        0.74550000      -2.82320000      -0.81420000
H        2.30990000      -2.12520000      -1.21890000
H        2.68330000      -1.63700000       1.07450000
H        1.41560000      -3.67490000       1.63250000
