17
Properties=species:S:1:pos:R:3 gdb_124699=T pbc="F F F"
C        0.03490000       1.41360000      -0.26940000
C        0.01640000      -0.08450000       0.08780000
C        0.73310000      -0.36980000       1.40960000
O        2.08600000       0.02740000       1.24160000
C       -1.38690000      -0.60780000       0.09140000
N       -1.98680000      -1.06180000       1.16090000
O       -3.26200000      -1.42440000       0.70040000
C       -3.27260000      -1.14030000      -0.60140000
N       -2.16950000      -0.63910000      -1.05150000
H        1.06720000       1.76570000      -0.30440000
H       -0.43770000       1.58600000      -1.23910000
H       -0.50470000       1.99640000       0.48500000
H        0.55420000      -0.62560000      -0.70140000
H        0.24560000       0.18760000       2.22330000
H        0.65490000      -1.43900000       1.65200000
H        2.54000000      -0.09390000       2.08010000
H       -4.18240000      -1.35340000      -1.14360000
