15
Properties=species:S:1:pos:R:3 gdb_45077=T pbc="F F F"
O       -0.05300000      -0.00400000       0.19970000
C       -0.03920000       1.19210000       0.06470000
N       -1.11730000       2.02160000      -0.09710000
C       -0.81730000       3.42300000      -0.04600000
C       -0.20180000       3.94410000       1.22940000
C        0.68260000       3.53080000       0.07330000
C        1.23220000       2.10840000       0.04340000
C        2.14500000       1.78470000       1.13480000
N        2.86850000       1.55920000       2.00670000
H       -2.04370000       1.65310000       0.05620000
H       -1.39120000       4.06390000      -0.70450000
H       -0.26770000       5.00780000       1.42860000
H       -0.24360000       3.31060000       2.10940000
H        1.22620000       4.29640000      -0.46410000
H        1.75010000       1.91640000      -0.90370000
