13
Properties=species:S:1:pos:R:3 gdb_133528=T pbc="F F F"
C       -0.01730000       1.55210000       0.07070000
C       -0.01920000       0.02300000       0.02730000
O        0.66030000      -0.44170000       1.16940000
C       -1.40850000      -0.49620000      -0.00650000
N       -2.48670000      -0.90890000       0.00600000
C        0.71050000      -0.49050000      -1.24040000
F        1.94120000       0.01250000      -1.31340000
F        0.81200000      -1.82820000      -1.19190000
F        0.04980000      -0.15920000      -2.35060000
H        1.01560000       1.90110000       0.11140000
H       -0.50950000       1.96180000      -0.81290000
H       -0.54550000       1.88520000       0.96510000
H        0.68530000      -1.40660000       1.14200000
