19
Properties=species:S:1:pos:R:3 gdb_74496=T pbc="F F F"
C        0.07400000       1.50200000       0.07210000
C       -0.00160000       0.00980000       0.00180000
C       -0.07370000      -0.74740000      -1.09720000
C       -0.05890000      -2.21450000      -0.79050000
C        1.22470000      -2.69550000      -0.11010000
C        0.06300000      -2.27970000       0.74150000
C        0.01200000      -0.84630000       1.25880000
C       -0.84880000      -3.12920000      -1.55770000
C       -1.50960000      -3.88920000      -2.21680000
H        1.01190000       1.83410000       0.53550000
H        0.00940000       1.95560000      -0.92050000
H       -0.73770000       1.91010000       0.68820000
H       -0.11250000      -0.37880000      -2.11580000
H        1.43790000      -3.75730000      -0.16600000
H        2.09010000      -2.04480000      -0.18570000
H       -0.46670000      -3.05530000       1.28050000
H        0.86750000      -0.60810000       1.90510000
H       -0.88790000      -0.66730000       1.86330000
H       -2.09630000      -4.55980000      -2.79360000
