16
Properties=species:S:1:pos:R:3 gdb_49857=T pbc="F F F"
O        0.18710000      -0.18200000       0.05650000
C        0.09410000       1.01090000      -0.05780000
C        1.26360000       1.97500000      -0.04210000
C        1.22190000       3.02170000      -1.16750000
C        1.57780000       4.36820000      -0.50830000
O        1.80070000       5.39400000      -1.07960000
N        1.60780000       4.23050000       0.92630000
C        0.26040000       3.87090000       1.45050000
C        1.28790000       2.82720000       1.23810000
H       -0.89990000       1.50440000      -0.17390000
H        2.17970000       1.38090000      -0.08220000
H        1.90930000       2.80720000      -1.98700000
H        0.22500000       3.12340000      -1.61430000
H        0.05950000       4.24310000       2.44940000
H       -0.58080000       3.93810000       0.76560000
H        1.80170000       2.40990000       2.09740000
