19
Properties=species:S:1:pos:R:3 gdb_124505=T pbc="F F F"
C       -0.04400000       1.55440000       0.03290000
C       -0.00850000       0.01430000       0.03340000
C        0.71910000      -0.52890000       1.27780000
C       -1.38950000      -0.55560000      -0.07520000
C       -2.00590000      -1.32800000      -1.00800000
C       -3.32600000      -1.49840000      -0.49070000
N       -4.38430000      -2.15010000      -1.10350000
N       -3.48330000      -0.88750000       0.66380000
O       -2.24550000      -0.27520000       0.92260000
H        0.97240000       1.95720000       0.07940000
H       -0.52530000       1.93930000      -0.87080000
H       -0.60080000       1.92740000       0.89720000
H        0.53220000      -0.32100000      -0.85930000
H        0.19240000      -0.23640000       2.19070000
H        0.77870000      -1.62090000       1.25720000
H        1.73710000      -0.13020000       1.32630000
H       -1.59730000      -1.70680000      -1.93030000
H       -4.12070000      -2.99190000      -1.59540000
H       -5.15670000      -2.31590000      -0.47170000
