19
Properties=species:S:1:pos:R:3 gdb_95110=T pbc="F F F"
O       -0.08150000       1.45080000       0.04800000
C       -0.01190000       0.03460000      -0.00120000
C        0.68960000      -0.59530000       1.22640000
C        0.00790000      -1.96150000       1.44330000
C       -1.41100000      -1.76880000       0.92560000
C       -2.14780000      -0.52690000       1.33310000
C       -1.42120000      -0.55590000      -0.00450000
C       -2.17110000      -0.52850000      -1.22340000
C       -2.78760000      -0.50610000      -2.25660000
H        0.80420000       1.79800000      -0.09650000
H        0.48470000      -0.28830000      -0.92840000
H        1.77060000      -0.68220000       1.08500000
H        0.52970000       0.06730000       2.08250000
H        0.50450000      -2.73970000       0.85250000
H        0.04030000      -2.28260000       2.49020000
H       -1.99520000      -2.64250000       0.66070000
H       -3.22950000      -0.55300000       1.28230000
H       -1.74960000       0.11010000       2.11480000
H       -3.33690000      -0.47980000      -3.16440000
