11
Properties=species:S:1:pos:R:3 gdb_132257=T pbc="F F F"
F       -0.00560000       0.07870000       0.00290000
C       -0.01610000       1.39200000       0.01120000
N       -1.21200000       1.94960000       0.03010000
C       -1.20780000       3.28890000       0.03680000
C       -0.03160000       4.03650000       0.02460000
C        1.15240000       3.30600000       0.00450000
N        1.17370000       1.97320000      -0.00260000
C       -2.48750000       3.94950000       0.05770000
N       -3.49520000       4.51560000       0.07430000
H       -0.04440000       5.11780000       0.03030000
H        2.11750000       3.80490000      -0.00620000
