20
Properties=species:S:1:pos:R:3 gdb_109127=T pbc="F F F"
C        0.18230000       1.52040000       0.15910000
C        0.00720000       0.00220000      -0.02660000
C       -1.43140000      -0.45520000      -0.06220000
C       -2.01470000      -0.91200000      -1.16920000
C       -3.43800000      -1.37420000      -1.24750000
C       -4.22970000      -1.29310000       0.04910000
O       -5.39810000      -1.63070000       0.10950000
N       -3.56160000      -0.82130000       1.14060000
C       -2.18280000      -0.38090000       1.24010000
H        1.24290000       1.78910000       0.14500000
H       -0.31860000       2.07050000      -0.64350000
H       -0.23070000       1.86770000       1.11120000
H        0.49400000      -0.30280000      -0.95880000
H        0.53740000      -0.51730000       0.78420000
H       -1.43640000      -0.96520000      -2.08960000
H       -3.99930000      -0.80260000      -1.99830000
H       -3.49600000      -2.41570000      -1.59040000
H       -4.12870000      -0.78540000       1.97550000
H       -1.65060000      -0.98830000       1.99060000
H       -2.15660000       0.65050000       1.62330000
