16
Properties=species:S:1:pos:R:3 gdb_10906=T pbc="F F F"
C       -0.00320000       1.63100000      -0.06960000
C        0.01900000       0.10890000      -0.04380000
C        0.74570000      -0.64390000      -1.17330000
O        2.11300000      -0.24520000      -1.10490000
C        1.68370000      -1.34290000      -0.25420000
C        2.42210000      -2.63670000      -0.31030000
C        1.00740000      -0.62830000       0.91960000
O        1.09710000      -0.70760000       2.10860000
H        0.98190000       2.02030000      -0.33800000
H       -0.73520000       2.00580000      -0.79210000
H       -0.27120000       2.02240000       0.91640000
H       -0.98180000      -0.30380000       0.13960000
H        0.36400000      -0.98950000      -2.12710000
H        2.62680000      -2.91650000      -1.34700000
H        3.37580000      -2.55660000       0.22090000
H        1.83890000      -3.43140000       0.16470000
