18
Properties=species:S:1:pos:R:3 gdb_76608=T pbc="F F F"
C        0.06110000       1.19640000       0.55410000
C        0.00400000      -0.24270000       0.10400000
C        0.68760000      -0.75830000      -1.14940000
C        1.52200000       0.10070000      -2.07030000
N        1.16050000      -1.11400000       0.16870000
C        2.40150000      -1.00570000       0.71750000
O        3.45220000      -1.21110000       0.13760000
C        2.43350000      -0.71600000       2.22250000
O        1.48310000      -0.41340000       2.89410000
H        0.99590000       1.68460000       0.26820000
H       -0.76830000       1.75550000       0.10860000
H       -0.02890000       1.25110000       1.64140000
H       -0.92110000      -0.74930000       0.37750000
H        0.18010000      -1.58060000      -1.65370000
H        1.97040000       0.95180000      -1.55470000
H        2.33660000      -0.48860000      -2.49920000
H        0.90000000       0.47920000      -2.88780000
H        3.46320000      -0.80410000       2.62600000
