17
Properties=species:S:1:pos:R:3 gdb_100233=T pbc="F F F"
N       -0.01960000       1.48580000      -0.01610000
C        0.05610000       0.03060000      -0.03110000
C        0.82210000      -0.46150000       1.23490000
N        0.24970000       0.02430000       2.48610000
C        0.84750000      -2.01080000       1.23350000
C        1.53680000      -2.59940000       2.37910000
N        2.07230000      -3.10220000       3.26990000
C        2.20710000       0.05170000       1.12670000
N        3.26740000       0.48190000       0.96780000
H        0.86150000       1.89130000      -0.31650000
H       -0.73530000       1.81590000      -0.65270000
H       -0.96180000      -0.37040000       0.03380000
H        0.52560000      -0.39650000      -0.93220000
H        0.03660000       1.01230000       2.36220000
H       -0.63380000      -0.44890000       2.65730000
H       -0.18860000      -2.37010000       1.22610000
H        1.31770000      -2.37080000       0.31310000
