27
Properties=species:S:1:pos:R:3 gdb_86537=T pbc="F F F"
C       -0.71220000       0.93150000      -0.81540000
C        0.22610000      -0.17780000      -0.36400000
C        1.49980000      -0.45440000      -1.21310000
C        2.36090000      -0.49180000       0.08870000
C        1.13800000       0.08660000       0.86820000
C        2.92870000      -1.85880000       0.54270000
C        4.00260000      -2.30380000      -0.46860000
C        3.58730000      -1.68190000       1.92430000
C        1.84640000      -2.95050000       0.63850000
H       -0.16630000       1.87060000      -0.96470000
H       -1.20350000       0.67900000      -1.76220000
H       -1.49700000       1.11810000      -0.07320000
H       -0.34400000      -1.10220000      -0.22280000
H        1.49010000      -1.35380000      -1.83480000
H        1.76090000       0.39250000      -1.85560000
H        3.20690000       0.20350000       0.05500000
H        1.25090000       1.15510000       1.07800000
H        0.85790000      -0.40850000       1.80200000
H        4.80500000      -1.56140000      -0.54390000
H        4.45550000      -3.25440000      -0.16560000
H        3.58060000      -2.44200000      -1.46940000
H        2.86050000      -1.36410000       2.67900000
H        4.03320000      -2.62160000       2.26850000
H        4.38260000      -0.92900000       1.88850000
H        1.36250000      -3.13080000      -0.32660000
H        2.29060000      -3.89830000       0.96180000
H        1.06910000      -2.69150000       1.36430000
