15
Properties=species:S:1:pos:R:3 gdb_99574=T pbc="F F F"
O        0.08760000       1.44080000       0.04400000
C        0.05220000       0.03710000       0.05150000
C       -1.40270000      -0.50610000       0.03170000
C       -2.07080000      -0.05020000      -1.18710000
N       -2.53680000       0.33440000      -2.17250000
C       -1.42120000      -2.05900000       0.13950000
O       -0.70100000      -2.50880000       1.26580000
C       -2.80210000      -2.57550000       0.14620000
N       -3.88440000      -2.97400000       0.21100000
H       -0.21960000       1.75270000      -0.81510000
H        0.60930000      -0.40280000      -0.78920000
H        0.52420000      -0.29280000       0.97810000
H       -1.93610000      -0.08460000       0.89210000
H       -0.90280000      -2.47420000      -0.73170000
H       -1.22710000      -2.34860000       2.05850000
