16
Properties=species:S:1:pos:R:3 gdb_1181=T pbc="F F F"
C       -0.06960000       1.39600000       0.10790000
O        0.01580000      -0.01020000      -0.01990000
C        0.67400000      -0.51900000      -1.17860000
C       -0.05740000      -0.14010000      -2.48130000
C        2.16150000      -0.11840000      -1.23040000
C        0.59460000      -1.98900000      -1.01210000
N        0.55530000      -3.13950000      -0.92240000
H        0.91600000       1.87590000       0.16900000
H       -0.63950000       1.86100000      -0.70720000
H       -0.59940000       1.57650000       1.04560000
H        0.04440000       0.92980000      -2.68000000
H        0.37120000      -0.68340000      -3.32700000
H       -1.11780000      -0.39090000      -2.40460000
H        2.64840000      -0.35380000      -0.28130000
H        2.67130000      -0.66130000      -2.03010000
H        2.26300000       0.95130000      -1.42990000
