14
Properties=species:S:1:pos:R:3 gdb_123976=T pbc="F F F"
C        0.00880000       1.53990000      -0.05540000
N        1.38840000       2.01840000       0.12100000
C        2.35510000       1.23310000       0.27030000
O        2.35720000      -0.16040000       0.30250000
C        1.10910000      -0.66270000       0.14450000
C       -0.05270000       0.04230000      -0.02950000
C       -1.03080000      -0.97320000      -0.13920000
N       -0.50670000      -2.19270000      -0.04010000
N        0.82430000      -1.97880000       0.13580000
H       -0.59970000       2.00050000       0.73420000
H       -0.36440000       1.96090000      -0.99840000
H        3.37420000       1.58400000       0.40070000
H       -2.09610000      -0.86860000      -0.28630000
H        1.45320000      -2.75660000       0.23910000
