15
Properties=species:S:1:pos:R:3 gdb_4810=T pbc="F F F"
O        0.66830000       0.27510000       0.75620000
C       -0.11900000       0.29880000      -0.43440000
C       -1.49920000      -0.22720000      -0.21390000
C       -2.73340000       0.20810000      -0.65950000
C       -3.70360000      -0.70710000      -0.16450000
O       -5.05680000      -0.68020000      -0.34940000
C       -3.04770000      -1.66680000       0.57320000
N       -1.70430000      -1.36120000       0.52170000
H        0.19990000       0.79940000       1.41540000
H       -0.18180000       1.30660000      -0.86930000
H        0.44130000      -0.32270000      -1.14420000
H       -2.91430000       1.07510000      -1.27860000
H       -5.27160000       0.07620000      -0.90200000
H       -3.42580000      -2.51060000       1.12450000
H       -0.97130000      -1.83930000       1.01630000
