20
Properties=species:S:1:pos:R:3 gdb_111464=T pbc="F F F"
C       -0.03350000       1.52150000       0.21860000
C       -0.12360000       0.01160000      -0.01950000
C        0.61120000      -0.46850000      -1.28600000
C        0.82160000      -1.97150000      -1.39210000
C       -0.39870000      -2.85090000      -1.61640000
C        0.40840000      -2.35330000      -2.77930000
O       -0.10070000      -1.20970000      -3.44080000
C       -0.09530000      -0.12600000      -2.59820000
N       -0.61090000       0.98800000      -2.89440000
H        1.00980000       1.83620000       0.33910000
H       -0.45760000       2.07110000      -0.62360000
H       -0.57120000       1.80060000       1.13020000
H        0.30760000      -0.52300000       0.83600000
H       -1.17420000      -0.29540000      -0.07660000
H        1.59620000       0.01740000      -1.31410000
H        1.69400000      -2.40820000      -0.92180000
H       -0.30600000      -3.89830000      -1.35080000
H       -1.39010000      -2.43250000      -1.47650000
H        0.95630000      -3.00770000      -3.44490000
H       -1.03140000       0.95220000      -3.82450000
