18
Properties=species:S:1:pos:R:3 gdb_23274=T pbc="F F F"
C        0.82970000       1.52660000      -0.30000000
C        0.11570000       0.21000000       0.05270000
C        0.18010000      -0.85790000      -1.08170000
C        1.22490000      -1.86490000      -0.63410000
O        2.47270000      -1.26780000      -0.27570000
C        1.56030000      -1.63920000       0.78270000
C        0.75990000      -0.48020000       1.24600000
N        0.64760000      -0.22390000       2.48870000
O       -0.19320000       0.87890000       2.71100000
H        1.87450000       1.33680000      -0.55750000
H        0.34220000       2.00540000      -1.15570000
H        0.79530000       2.21810000       0.54540000
H       -0.92310000       0.43970000       0.30740000
H       -0.78230000      -1.36930000      -1.19590000
H        0.43350000      -0.41480000      -2.04990000
H        1.29180000      -2.84680000      -1.09610000
H        1.90730000      -2.40030000       1.47280000
H       -0.19850000       0.94010000       3.67230000
