21
Properties=species:S:1:pos:R:3 gdb_113260=T pbc="F F F"
C       -0.12780000       1.66210000       0.08540000
C       -0.01610000       0.14600000       0.06310000
C       -1.23390000      -0.54030000      -0.54840000
C       -1.40870000      -0.20890000      -2.01700000
O       -2.43170000       0.17640000      -2.52190000
C        1.33890000      -0.48930000      -0.17590000
C        0.68660000      -0.59900000       1.18060000
C        1.28300000       0.07620000       2.38810000
O        2.29150000      -0.78500000       2.90310000
H        0.78100000       2.13790000       0.46030000
H       -0.30680000       2.05320000      -0.92270000
H       -0.96510000       1.98920000       0.71300000
H       -1.11040000      -1.63020000      -0.47980000
H       -2.15730000      -0.27430000      -0.02280000
H       -0.48780000      -0.35490000      -2.62870000
H        1.40600000      -1.38050000      -0.79090000
H        2.19420000       0.17280000      -0.26550000
H        0.26580000      -1.57150000       1.42390000
H        1.70420000       1.05590000       2.11800000
H        0.49820000       0.25530000       3.14110000
H        2.62170000      -0.40090000       3.72090000
