19
Properties=species:S:1:pos:R:3 gdb_128099=T pbc="F F F"
C        0.01380000       1.46860000       0.12820000
N       -0.08080000       0.01630000       0.03140000
C        0.57210000      -0.72780000       1.01060000
C        0.69190000      -2.10500000       1.10380000
C        0.21880000      -3.20590000       0.21900000
N        1.37360000      -2.27730000       2.27240000
C        1.79720000      -3.50900000       2.90010000
N        1.63850000      -1.10300000       2.86490000
N        1.15830000      -0.15740000       2.09550000
H        1.04460000       1.84780000       0.08060000
H       -0.56840000       1.90960000      -0.68500000
H       -0.41090000       1.79560000       1.07980000
H        0.10920000      -0.32040000      -0.90210000
H        1.01740000      -3.62670000      -0.40580000
H       -0.21670000      -4.03260000       0.79110000
H       -0.55980000      -2.82660000      -0.44900000
H        2.48870000      -4.05960000       2.25490000
H        2.30150000      -3.23810000       3.82750000
H        0.93820000      -4.14830000       3.12690000
