17
Properties=species:S:1:pos:R:3 gdb_5320=T pbc="F F F"
C        0.43830000       1.59090000      -0.26450000
C        0.04200000       0.14670000       0.06500000
C        0.22020000      -0.78170000      -1.15050000
C        0.79000000      -0.38600000       1.25170000
C        1.79750000       0.15750000       1.97930000
O        2.14960000      -0.72760000       2.96510000
C        1.32000000      -1.77550000       2.77480000
N        0.49770000      -1.64340000       1.78900000
H        1.49550000       1.65410000      -0.54690000
H       -0.15070000       1.96690000      -1.10620000
H        0.27360000       2.25820000       0.58740000
H       -1.02400000       0.13410000       0.33140000
H        1.26320000      -0.78460000      -1.48600000
H       -0.05750000      -1.80730000      -0.89650000
H       -0.40460000      -0.44710000      -1.98490000
H        2.34540000       1.08240000       1.95300000
H        1.42320000      -2.60600000       3.45570000
