21
Properties=species:S:1:pos:R:3 gdb_58537=T pbc="F F F"
C        0.00190000       1.47670000       0.01970000
C       -0.03490000      -0.05900000       0.05280000
C        0.70230000      -0.58670000       1.29320000
C       -1.48710000      -0.57350000      -0.06830000
O       -2.13300000      -0.03460000      -1.21040000
C       -1.69290000      -2.11760000       0.03740000
C       -2.34150000      -1.96610000       1.44920000
C       -2.35740000      -0.45280000       1.21010000
O       -2.94300000       0.47570000       1.69310000
H        1.03320000       1.83640000       0.08770000
H       -0.42290000       1.86150000      -0.91070000
H       -0.55850000       1.90320000       0.85910000
H        0.48120000      -0.43460000      -0.84180000
H        0.72210000      -1.67960000       1.33740000
H        1.74090000      -0.24230000       1.28580000
H        0.24560000      -0.21640000       2.21860000
H       -2.49460000       0.82310000      -0.95830000
H       -2.40150000      -2.45360000      -0.72020000
H       -0.79030000      -2.72710000      -0.01390000
H       -3.31910000      -2.42480000       1.61550000
H       -1.68150000      -2.24730000       2.27600000
