21
Properties=species:S:1:pos:R:3 gdb_119408=T pbc="F F F"
O       -0.06620000       1.42440000      -0.05230000
C        0.01710000       0.00810000       0.03120000
C       -1.40160000      -0.53980000      -0.08800000
C       -1.47330000      -2.03810000       0.03550000
C       -1.09610000      -2.86210000       1.30240000
C       -1.82080000      -3.98100000       0.49320000
C       -2.78970000      -2.86100000       0.00270000
C       -0.88980000      -4.07750000      -0.72040000
O       -0.68150000      -2.67530000      -0.99620000
H        0.82850000       1.77620000      -0.05350000
H        0.63880000      -0.41060000      -0.77140000
H        0.45940000      -0.30680000       0.99050000
H       -2.02540000      -0.08410000       0.68890000
H       -1.81700000      -0.23630000      -1.05580000
H       -0.03300000      -2.98800000       1.52390000
H       -1.64800000      -2.55820000       2.19360000
H       -2.16750000      -4.90990000       0.94410000
H       -3.50790000      -2.55660000       0.76610000
H       -3.27600000      -2.98060000      -0.96910000
H        0.06740000      -4.56600000      -0.50060000
H       -1.34900000      -4.56820000      -1.58700000
