16
Properties=species:S:1:pos:R:3 gdb_27581=T pbc="F F F"
N       -0.01660000       1.41200000       0.14550000
C        0.00930000       0.02080000       0.04760000
C       -1.18040000      -0.71470000       0.04030000
C       -1.16160000      -2.11450000       0.00400000
C        0.06650000      -2.79390000      -0.02680000
C        1.24720000      -2.06130000      -0.02100000
C        1.22860000      -0.67220000       0.01510000
C       -2.38820000      -2.84170000      -0.00380000
C       -3.42350000      -3.45730000      -0.01140000
H        0.80170000       1.87850000      -0.21770000
H       -0.86620000       1.84580000      -0.18500000
H       -2.13490000      -0.19920000       0.06640000
H        0.07960000      -3.87620000      -0.05660000
H        2.20070000      -2.57890000      -0.04730000
H        2.16030000      -0.11410000       0.02250000
H       -4.33440000      -4.00200000      -0.01700000
