22
Properties=species:S:1:pos:R:3 gdb_113840=T pbc="F F F"
C       -0.68350000       1.05080000       0.92880000
O       -0.91920000      -0.32980000       1.13380000
C       -1.54090000      -0.94060000       0.04630000
C       -0.71310000      -1.39390000      -1.13760000
C       -1.34420000      -2.41890000      -0.22330000
N       -0.53010000      -3.38260000       0.45990000
C        0.48130000      -3.02590000       1.45170000
C       -0.76070000      -3.74990000       1.85960000
C       -1.80420000      -3.07730000       2.72390000
H       -0.20790000       1.43520000       1.83380000
H       -0.02230000       1.22260000       0.06830000
H       -1.62390000       1.59600000       0.75910000
H       -2.53630000      -0.54050000      -0.16180000
H       -1.08030000      -1.26310000      -2.14980000
H        0.36010000      -1.27690000      -1.02270000
H       -2.23950000      -2.89870000      -0.61250000
H        1.42510000      -3.55880000       1.35480000
H        0.56270000      -1.98840000       1.75590000
H       -0.68340000      -4.82590000       2.01610000
H       -1.77990000      -1.99160000       2.61460000
H       -2.81110000      -3.43260000       2.47560000
H       -1.62340000      -3.31930000       3.77720000
