19
Properties=species:S:1:pos:R:3 gdb_105894=T pbc="F F F"
C       -0.19750000       1.60230000      -0.01400000
C       -0.06070000       0.08650000      -0.01000000
C        1.18850000      -0.56040000      -0.65610000
C        2.07240000      -0.31110000       0.60550000
O        2.52540000      -1.69200000       0.72320000
C        1.13100000      -1.78880000       0.30050000
C        0.63920000      -0.60010000       1.19060000
C        0.25410000      -0.65800000       2.64120000
O        0.16510000       0.63290000       3.23500000
H        0.74990000       2.09300000       0.23490000
H       -0.50990000       1.96700000      -0.99860000
H       -0.93930000       1.92900000       0.72060000
H       -1.00530000      -0.39130000      -0.29810000
H        1.52440000      -0.55960000      -1.69340000
H        2.78530000       0.48460000       0.82210000
H        0.69330000      -2.77590000       0.15100000
H       -0.74180000      -1.10170000       2.75040000
H        0.96570000      -1.30590000       3.17610000
H        1.04680000       1.01880000       3.22330000
