19
Properties=species:S:1:pos:R:3 gdb_42391=T pbc="F F F"
O        0.46490000      -0.21330000      -1.35450000
C        0.11630000       0.84840000      -0.88990000
C        1.01180000       1.71900000      -0.02130000
C        2.41960000       1.18860000       0.09810000
C        3.47590000       1.61750000      -0.88630000
C        3.53470000       2.09990000       0.54280000
C       -1.27640000       1.34990000      -1.17930000
C       -2.19120000       1.77080000      -0.09730000
O       -1.56490000       2.72920000      -0.93610000
H        0.99590000       2.73680000      -0.42970000
H        0.53880000       1.81000000       0.96830000
H        2.47570000       0.15650000       0.42810000
H        4.19990000       0.88120000      -1.21570000
H        3.19590000       2.33530000      -1.65070000
H        3.29630000       3.14080000       0.73680000
H        4.30080000       1.69410000       1.19430000
H       -1.71120000       0.92640000      -2.08330000
H       -3.26250000       1.64130000      -0.24220000
H       -1.85310000       1.75420000       0.93720000
