20
Properties=species:S:1:pos:R:3 gdb_56279=T pbc="F F F"
O       -0.50960000       0.01050000      -0.54510000
C       -0.24410000       1.28860000      -0.23640000
O        0.69580000       1.89490000      -0.67190000
C       -1.24960000       1.88450000       0.76400000
N       -2.46490000       1.07630000       0.83690000
H       -1.33280000      -0.19740000      -0.04950000
H       -2.84320000       1.06580000       1.77690000
C       -3.51720000       1.47290000      -0.10780000
C       -4.73890000       0.60400000       0.05220000
C       -5.76310000       0.93360000       1.11530000
C       -6.09440000       1.12540000      -0.34330000
H       -0.75520000       1.88520000       1.74130000
H       -1.42290000       2.93350000       0.48930000
H       -3.79800000       2.53320000       0.01790000
H       -3.10940000       1.37450000      -1.12180000
H       -4.55760000      -0.45250000      -0.12410000
H       -6.23390000       0.11660000       1.65020000
H       -5.60690000       1.82520000       1.71520000
H       -6.15930000       2.14180000      -0.71740000
H       -6.78980000       0.43720000      -0.80970000
