19
Properties=species:S:1:pos:R:3 gdb_2857=T pbc="F F F"
C        0.39410000       1.39900000       0.30800000
C       -0.25370000       0.11640000      -0.22460000
C        0.50510000      -0.48110000      -1.39250000
C        1.72110000      -1.36000000      -1.14820000
C        0.43920000      -1.94690000      -1.69340000
O       -0.35770000      -2.73300000      -0.86480000
C        0.08190000      -4.07290000      -0.78670000
H        1.41550000       1.20940000       0.65460000
H        0.44780000       2.16990000      -0.46900000
H       -0.17570000       1.81170000       1.14650000
H       -0.32740000      -0.62990000       0.57210000
H       -1.28470000       0.32710000      -0.53680000
H        0.56100000       0.16450000      -2.26640000
H        2.58560000      -1.27440000      -1.79760000
H        1.95180000      -1.58890000      -0.11220000
H        0.42960000      -2.25880000      -2.73970000
H        0.06680000      -4.56210000      -1.77280000
H        1.10240000      -4.14370000      -0.38320000
H       -0.60550000      -4.60020000      -0.12090000
