20
Properties=species:S:1:pos:R:3 gdb_39648=T pbc="F F F"
C        1.57630000       1.82230000       1.62770000
C        0.87040000       0.45900000       1.73420000
C        1.24350000       0.31180000       0.23740000
O        2.04420000       1.52090000       0.29730000
C        2.08120000      -0.84850000      -0.27570000
C        2.45540000      -2.09680000       0.56330000
C        0.97640000      -2.50260000       0.37360000
N        1.34590000      -1.98160000      -1.02960000
C        2.65130000      -2.76900000      -0.81110000
H        0.90220000       2.68890000       1.63650000
H        2.40440000       2.01020000       2.32040000
H        1.37780000      -0.25300000       2.38790000
H       -0.19440000       0.47220000       1.97120000
H        0.38660000       0.44980000      -0.43860000
H        2.88520000      -0.41910000      -0.88380000
H        3.08470000      -2.16480000       1.45800000
H        0.73410000      -3.56900000       0.38820000
H        0.19660000      -1.92330000       0.87120000
H        3.47750000      -2.43010000      -1.44180000
H        2.51520000      -3.85180000      -0.87490000
