21
Properties=species:S:1:pos:R:3 gdb_80943=T pbc="F F F"
C       -0.10960000       1.63460000      -0.00330000
C        0.03200000       0.12000000       0.00920000
C        1.18590000      -0.60900000      -0.74920000
C        2.15920000      -0.15570000       0.37290000
C        0.86770000      -0.62260000       1.11490000
C        0.60540000      -0.66030000       2.59600000
C        0.89320000      -1.86540000       0.14150000
C       -0.30520000      -2.65400000      -0.05830000
C       -1.28080000      -3.34300000      -0.20740000
H        0.83130000       2.17000000       0.14760000
H       -0.52730000       1.96790000      -0.95990000
H       -0.80280000       1.95830000       0.78130000
H       -0.94720000      -0.33810000      -0.15980000
H        1.37070000      -0.62120000      -1.82410000
H        3.05200000      -0.77040000       0.52270000
H        2.40970000       0.90360000       0.42290000
H        0.60470000       0.34950000       3.02080000
H       -0.36820000      -1.11640000       2.80500000
H        1.37100000      -1.24320000       3.11970000
H        1.76070000      -2.51830000       0.28510000
H       -2.14360000      -3.94610000      -0.34590000
