20
Properties=species:S:1:pos:R:3 gdb_7581=T pbc="F F F"
C        0.01860000       1.48690000      -0.15080000
C       -0.02370000      -0.03280000       0.06480000
C        0.72840000      -0.42980000       1.34330000
C       -1.46620000      -0.55150000       0.08470000
O       -2.12240000       0.05480000       1.17430000
C       -2.19860000      -0.52180000      -1.28570000
O       -2.10670000      -1.95340000      -1.40960000
C       -1.61740000      -2.09120000      -0.06240000
H        1.05310000       1.83970000      -0.20430000
H       -0.47960000       1.77980000      -1.08090000
H       -0.47830000       2.00530000       0.67360000
H        0.46250000      -0.52000000      -0.79110000
H        0.25690000       0.02010000       2.22110000
H        0.74070000      -1.51520000       1.48770000
H        1.76770000      -0.09000000       1.30000000
H       -3.03120000      -0.26160000       1.20140000
H       -3.24030000      -0.17410000      -1.21570000
H       -1.70530000      -0.00310000      -2.11550000
H       -0.70690000      -2.69920000      -0.01400000
H       -2.37090000      -2.52180000       0.61420000
