18
Properties=species:S:1:pos:R:3 gdb_1559=T pbc="F F F"
C       -0.03230000       1.56260000       0.06510000
C        0.00100000       0.03350000       0.12960000
C       -1.38950000      -0.58180000      -0.08450000
N       -1.41530000      -2.03340000      -0.03900000
C       -1.24230000      -2.70280000       1.23850000
C       -1.62160000      -2.77500000      -1.16480000
O       -1.65400000      -3.98680000      -1.22090000
H        0.96420000       1.98590000       0.21900000
H       -0.39580000       1.91220000      -0.90760000
H       -0.69270000       1.97900000       0.83380000
H        0.68220000      -0.36430000      -0.63210000
H        0.39940000      -0.28490000       1.10000000
H       -2.08640000      -0.18850000       0.66970000
H       -1.77660000      -0.27130000      -1.06180000
H       -1.97080000      -2.32920000       1.96830000
H       -1.39970000      -3.76940000       1.07710000
H       -0.23620000      -2.54860000       1.64440000
H       -1.76510000      -2.13020000      -2.05470000
