17
Properties=species:S:1:pos:R:3 gdb_12576=T pbc="F F F"
C        0.09110000       1.49690000      -0.18340000
C       -0.00880000       0.01060000      -0.06900000
C       -1.09310000      -0.76890000       0.06040000
C       -2.54400000      -0.42830000       0.13340000
C       -0.66380000      -2.20220000       0.13530000
O       -1.36920000      -3.18430000       0.25410000
N        0.70850000      -2.18240000       0.04130000
C        1.23870000      -0.84850000      -0.09070000
H        0.69690000       1.91690000       0.62940000
H        0.57900000       1.79010000      -1.12140000
H       -0.89070000       1.97390000      -0.15180000
H       -2.72430000       0.64710000       0.06800000
H       -3.09410000      -0.92430000      -0.67360000
H       -2.97680000      -0.79860000       1.06920000
H        1.25960000      -3.02250000       0.06560000
H        1.80070000      -0.71150000      -1.02710000
H        1.91910000      -0.58430000       0.73310000
