18
Properties=species:S:1:pos:R:3 gdb_47288=T pbc="F F F"
N       -0.05900000       1.36210000       0.26240000
C       -0.00980000       0.12510000      -0.00510000
C       -1.28890000      -0.67860000      -0.08830000
C       -1.53360000      -1.46980000      -1.38840000
C       -0.77800000      -2.78850000      -1.48440000
O       -1.27550000      -3.76990000      -1.98310000
C        0.64040000      -2.82170000      -0.92340000
C        1.43780000      -1.52520000      -1.08360000
O        1.19580000      -0.52190000      -0.09330000
H        0.89000000       1.74040000       0.31280000
H       -1.32150000      -1.36460000       0.76800000
H       -2.09460000       0.04280000       0.05030000
H       -2.59520000      -1.70280000      -1.49720000
H       -1.26050000      -0.85430000      -2.25670000
H        0.59050000      -3.07280000       0.14440000
H        1.16390000      -3.64580000      -1.41650000
H        2.50200000      -1.74600000      -0.97410000
H        1.29420000      -1.09750000      -2.08510000
