18
Properties=species:S:1:pos:R:3 gdb_69103=T pbc="F F F"
N        0.05130000       1.46070000      -0.10660000
C        0.01350000       0.03680000       0.07490000
C       -0.34910000      -0.93180000      -1.03670000
C       -1.30550000      -0.74090000       0.13100000
N       -1.27850000      -1.75640000       1.17360000
C        0.14690000      -1.88350000       1.55830000
C        0.84370000      -0.54330000       1.21410000
C       -2.55470000      -0.07670000      -0.10040000
N       -3.53660000       0.50710000      -0.28740000
H        0.76380000       1.72420000      -0.78040000
H       -0.83560000       1.81430000      -0.45250000
H       -0.65790000      -0.49450000      -1.97940000
H        0.14450000      -1.89390000      -1.12370000
H       -1.80800000      -1.40090000       1.96480000
H        0.22270000      -2.14610000       2.61540000
H        0.59440000      -2.70770000       0.99320000
H        1.89610000      -0.68770000       0.94980000
H        0.79990000       0.16430000       2.04790000
