15
Properties=species:S:1:pos:R:3 gdb_32192=T pbc="F F F"
O       -0.00800000       1.40880000       0.00690000
C        0.01630000      -0.00380000       0.00160000
C       -1.40570000      -0.46620000       0.01240000
C       -2.57160000       0.23310000       0.02400000
N       -3.67010000      -0.62220000       0.03100000
C       -3.17970000      -1.82330000       0.02370000
N       -1.78830000      -1.81400000       0.01200000
C       -0.97170000      -2.94350000       0.00200000
O       -1.38830000      -4.07070000       0.00280000
H        0.89970000       1.72540000      -0.00010000
H        0.53800000      -0.39400000      -0.88990000
H        0.55360000      -0.40040000       0.88090000
H       -2.68750000       1.30420000       0.02790000
H       -3.72210000      -2.75520000       0.02580000
H        0.10250000      -2.68850000      -0.00610000
