16
Properties=species:S:1:pos:R:3 gdb_64600=T pbc="F F F"
O        0.01080000       1.49840000      -0.00340000
C       -0.02090000       0.10010000       0.03200000
C        0.71560000      -0.45530000      -1.18460000
O        1.27110000       0.26420000      -1.97820000
C        0.62990000      -0.49570000       1.28710000
C       -0.15550000      -1.37940000       1.90180000
C       -1.48870000      -1.45880000       1.22550000
N       -2.19180000      -0.14830000       1.29960000
C       -1.43390000      -0.51000000       0.08660000
H        0.52480000       1.72840000      -0.79450000
H        0.72230000      -1.55880000      -1.28420000
H        1.60850000      -0.16060000       1.60880000
H        0.08450000      -1.91590000       2.81200000
H       -2.06570000      -2.37610000       1.20020000
H       -3.18060000      -0.29220000       1.09860000
H       -1.97500000      -0.67710000      -0.83840000
