18
Properties=species:S:1:pos:R:3 gdb_121582=T pbc="F F F"
C        0.02270000       1.38900000      -0.26610000
C       -0.02530000      -0.04980000       0.17200000
O        0.93690000      -0.68390000       0.54220000
C       -1.42410000      -0.70960000       0.12210000
O       -2.40460000      -0.09290000      -0.26410000
N       -1.40190000      -1.99060000       0.54060000
C       -2.56690000      -2.84920000       0.56290000
C       -2.27310000      -4.17920000      -0.11580000
O       -1.19850000      -4.77720000       0.59700000
H        1.04240000       1.76720000      -0.19420000
H       -0.35120000       1.47570000      -1.29120000
H       -0.65670000       1.98570000       0.35070000
H       -0.50660000      -2.37230000       0.81300000
H       -2.87800000      -3.04050000       1.59830000
H       -3.37680000      -2.32090000       0.05460000
H       -3.17610000      -4.80810000      -0.08950000
H       -2.00680000      -4.00490000      -1.16860000
H       -0.88630000      -5.54020000       0.10260000
