21
Properties=species:S:1:pos:R:3 gdb_41777=T pbc="F F F"
C        0.07950000       1.59080000       0.27900000
C        1.51850000       1.57700000      -0.30240000
C        1.23970000       0.15470000      -0.88350000
C        2.31690000      -0.87690000      -0.75030000
C        2.12660000      -2.13010000      -0.33910000
C        0.76490000      -2.68000000       0.01580000
C        0.13000000      -2.00130000       1.24620000
O        0.25810000      -0.59070000       1.28010000
C       -0.01390000       0.06490000       0.06220000
H       -0.04250000       1.91140000       1.31520000
H       -0.62570000       2.13720000      -0.35260000
H        1.78010000       2.36110000      -1.01640000
H        2.27760000       1.54750000       0.48300000
H        0.91270000       0.24290000      -1.92900000
H        3.32330000      -0.54460000      -1.00190000
H        2.97950000      -2.79840000      -0.25500000
H        0.08900000      -2.57100000      -0.84140000
H        0.81780000      -3.75470000       0.21930000
H       -0.93380000      -2.28760000       1.29850000
H        0.61500000      -2.35140000       2.16310000
H       -0.94150000      -0.31650000      -0.38820000
