25
Properties=species:S:1:pos:R:3 gdb_111408=T pbc="F F F"
C        1.40150000       0.34780000       1.04840000
C        0.25530000       0.31860000       0.03120000
C        0.73990000      -0.00430000      -1.38120000
C        1.27330000      -1.41640000      -1.67790000
C        0.17860000      -2.44430000      -1.60360000
C        0.27880000      -1.57880000      -2.82890000
C       -0.28870000      -0.17220000      -2.57190000
C       -1.79000000      -0.01510000      -2.33650000
C       -2.61150000      -0.30720000      -3.59700000
H        1.91140000      -0.62050000       1.09420000
H        2.14920000       1.10300000       0.78030000
H        1.03840000       0.58080000       2.05420000
H       -0.49480000      -0.41290000       0.35380000
H       -0.25330000       1.29150000       0.02420000
H        1.49000000       0.74220000      -1.66610000
H        2.31740000      -1.70530000      -1.64980000
H        0.50450000      -3.47080000      -1.74020000
H       -0.64690000      -2.34110000      -0.90480000
H        0.45270000      -2.00980000      -3.80790000
H        0.00320000       0.49940000      -3.38720000
H       -2.12100000      -0.67800000      -1.52850000
H       -1.99610000       1.00730000      -1.99350000
H       -2.33760000       0.37060000      -4.41360000
H       -2.44380000      -1.33140000      -3.94710000
H       -3.68390000      -0.18980000      -3.41220000
