21
Properties=species:S:1:pos:R:3 gdb_100964=T pbc="F F F"
C        0.02710000       1.35150000      -0.33230000
C        0.05440000      -0.09320000       0.09100000
O        1.33930000      -0.75860000       0.08500000
C        0.64070000      -0.61310000       1.34100000
C        1.28770000       0.28580000       2.36960000
C        0.12110000      -1.95780000       1.86380000
O       -0.23790000      -2.81010000       0.78140000
C        1.13450000      -2.70530000       2.74630000
O        0.64860000      -3.98950000       3.06480000
H        0.85500000       1.92500000       0.08760000
H        0.09140000       1.41990000      -1.42320000
H       -0.91580000       1.81730000      -0.02550000
H       -0.73430000      -0.70420000      -0.34740000
H        1.54730000       1.25890000       1.95240000
H        0.60890000       0.44430000       3.21480000
H        2.20550000      -0.16660000       2.75620000
H       -0.79620000      -1.79610000       2.44360000
H        0.45050000      -2.66690000       0.11280000
H        2.10210000      -2.75510000       2.21570000
H        1.29910000      -2.17710000       3.69070000
H        0.26560000      -4.32330000       2.24240000
