18
Properties=species:S:1:pos:R:3 gdb_112173=T pbc="F F F"
C       -0.07980000       1.64010000       0.16440000
C       -0.03000000       0.12860000       0.00140000
O       -1.31310000      -0.45370000       0.13120000
C        0.72480000      -0.48040000      -1.22940000
C        1.31510000       0.41940000      -2.29550000
O        2.09090000      -0.41830000      -3.14180000
N        1.70170000      -1.02250000      -0.27110000
C        1.04130000      -0.61540000       0.85540000
O        1.19450000      -0.80410000       2.03470000
H        0.90270000       2.10130000       0.02900000
H       -0.78360000       2.07850000      -0.54940000
H       -0.42200000       1.88250000       1.17570000
H       -1.51230000      -0.49390000       1.07450000
H        0.11860000      -1.25930000      -1.70240000
H        0.49970000       0.91220000      -2.84820000
H        1.93600000       1.19950000      -1.83230000
H        2.51850000       0.13130000      -3.80490000
H        2.44330000      -1.69420000      -0.40600000
