19
Properties=species:S:1:pos:R:3 gdb_37301=T pbc="F F F"
C       -0.02000000       1.54470000       0.06580000
C        1.29020000       0.80910000      -0.00500000
C       -0.01080000       0.02950000       0.00020000
C       -0.10910000      -0.69600000      -1.38200000
C       -0.84290000       0.20280000      -2.36540000
C        0.02420000       0.97130000      -3.02890000
C        1.43350000       0.56480000      -2.73680000
C        2.00890000       0.47580000      -1.29840000
C        1.34710000      -0.71080000      -1.93940000
H       -0.27440000       1.98280000       1.02670000
H       -0.35790000       2.11830000      -0.78660000
H        1.92640000       0.83280000       0.87490000
H       -0.33750000      -0.51730000       0.87860000
H       -0.55200000      -1.68700000      -1.26320000
H       -1.91990000       0.32770000      -2.35130000
H       -0.22970000       1.78740000      -3.69570000
H        2.18290000       0.68400000      -3.51330000
H        3.09240000       0.53100000      -1.26370000
H        1.84910000      -1.63170000      -2.21290000
