22
Properties=species:S:1:pos:R:3 gdb_31504=T pbc="F F F"
C        0.29690000       1.53100000       0.22900000
C       -0.09610000       0.08010000      -0.10590000
C        0.54990000      -0.45460000      -1.34470000
C        0.03110000      -0.75610000      -2.58160000
C        1.09350000      -1.21660000      -3.42090000
C        0.95470000      -1.64970000      -4.85000000
C        2.24720000      -1.18290000      -2.66330000
C        3.66090000      -1.54460000      -2.98200000
N        1.90000000      -0.71760000      -1.41070000
H        1.37620000       1.62640000       0.38940000
H        0.02540000       2.20410000      -0.58970000
H       -0.20630000       1.87400000       1.13890000
H        0.14010000      -0.56270000       0.75420000
H       -1.18100000       0.01950000      -0.23890000
H       -1.00810000      -0.66000000      -2.86260000
H        0.57710000      -0.83900000      -5.48520000
H        1.90970000      -1.97400000      -5.27320000
H        0.25280000      -2.48620000      -4.95350000
H        4.34130000      -0.68880000      -2.88110000
H        4.04290000      -2.34100000      -2.32960000
H        3.74090000      -1.90260000      -4.01050000
H        2.54490000      -0.60220000      -0.64780000
