15
Properties=species:S:1:pos:R:3 gdb_49135=T pbc="F F F"
O       -0.03960000      -0.02440000       0.08900000
C       -0.00210000       1.17980000      -0.00840000
C        1.25770000       1.95660000      -0.04820000
C        1.22850000       3.29800000      -0.13000000
C        2.47860000       4.08480000      -0.04600000
O        2.49120000       5.29660000      -0.03200000
C        3.75010000       3.25040000       0.10380000
O        3.63850000       1.97510000      -0.49420000
C        2.56510000       1.21140000       0.01210000
H       -0.92730000       1.79160000      -0.07460000
H        0.29670000       3.85360000      -0.20020000
H        4.57940000       3.76980000      -0.38030000
H        3.98010000       3.17300000       1.18240000
H        2.75630000       0.89120000       1.05250000
H        2.50230000       0.30230000      -0.59110000
