18
Properties=species:S:1:pos:R:3 gdb_11956=T pbc="F F F"
C        0.14340000       1.49700000       0.10410000
C       -0.11480000      -0.00470000      -0.08140000
C        0.63230000      -0.57410000      -1.24460000
C        2.07880000      -1.01940000      -1.27010000
C        0.98110000      -1.95680000      -1.73440000
O        0.72160000      -3.18820000      -1.16760000
C        0.45480000      -1.48790000      -3.08720000
O        0.25270000      -0.14590000      -2.56550000
H        1.20170000       1.69230000       0.30460000
H       -0.13510000       2.04990000      -0.79760000
H       -0.44040000       1.89300000       0.94030000
H        0.17570000      -0.55710000       0.81950000
H       -1.18640000      -0.18210000      -0.23210000
H        2.78080000      -0.57410000      -1.97080000
H        2.48440000      -1.27920000      -0.29630000
H        1.49980000      -3.74550000      -1.27810000
H        1.13310000      -1.50470000      -3.94890000
H       -0.50240000      -1.95250000      -3.35060000
