16
Properties=species:S:1:pos:R:3 gdb_105865=T pbc="F F F"
O       -0.02830000       1.47940000       0.29220000
C        0.07550000       0.09340000       0.00270000
C       -1.28940000      -0.53310000      -0.00340000
C       -1.99780000      -1.18890000       1.18430000
O       -3.25900000      -0.81230000       1.62960000
C       -1.87420000      -1.95310000      -0.09110000
N       -2.83550000      -1.48580000      -1.09790000
C       -2.37490000      -0.16320000      -0.99680000
O       -2.71440000       0.86240000      -1.52310000
H       -0.63110000       1.85800000      -0.36020000
H        0.57460000      -0.07780000      -0.96370000
H        0.70970000      -0.34450000       0.78060000
H       -1.29880000      -1.49160000       1.96820000
H       -3.19440000       0.06770000       2.01690000
H       -1.36510000      -2.90020000      -0.21480000
H       -3.82330000      -1.70920000      -1.04380000
