19
Properties=species:S:1:pos:R:3 gdb_79590=T pbc="F F F"
C       -0.00640000       1.57840000       0.08790000
C        0.14740000       0.07410000       0.01700000
C        1.44080000      -0.65990000      -0.22390000
C        2.61570000      -0.04390000       0.49620000
C        3.14350000      -0.94240000       1.55780000
C        1.84950000      -0.20610000       1.85660000
C        1.79280000       0.80490000       2.92760000
O        2.75910000       1.32630000       3.43720000
C        0.68320000      -0.81650000       1.11520000
H        0.84300000       2.06060000       0.57700000
H       -0.09210000       2.00240000      -0.91860000
H       -0.91130000       1.85180000       0.64150000
H       -0.67890000      -0.41020000      -0.50290000
H        1.53570000      -1.40280000      -1.00830000
H        3.14980000       0.85200000       0.20020000
H        3.10260000      -2.02030000       1.42980000
H        3.99660000      -0.56730000       2.11350000
H        0.76100000       1.07650000       3.24700000
H        0.13450000      -1.68950000       1.45230000
