19
Properties=species:S:1:pos:R:3 gdb_62765=T pbc="F F F"
C        0.12400000       1.60600000       0.08020000
C        0.07930000       0.09460000       0.04480000
O       -1.18080000      -0.41280000      -0.32680000
C        1.25250000      -0.76940000      -0.37550000
C        2.65080000      -0.18800000      -0.38490000
C        2.91080000       0.31480000       1.04710000
O        3.82890000       1.01500000       1.38350000
C        1.80380000      -0.21400000       1.97680000
C        0.73530000      -0.78730000       1.07060000
H        1.08370000       2.00250000       0.42060000
H       -0.05940000       2.01750000      -0.92020000
H       -0.65630000       1.98540000       0.74730000
H       -1.33630000      -0.16860000      -1.24630000
H        1.02070000      -1.60070000      -1.03110000
H        3.39560000      -0.96170000      -0.61140000
H        2.81990000       0.62670000      -1.09610000
H        2.23960000      -0.99700000       2.61010000
H        1.47320000       0.58450000       2.64800000
H        0.14230000      -1.62540000       1.41580000
