19
Properties=species:S:1:pos:R:3 gdb_47937=T pbc="F F F"
O        0.04660000       0.69020000       1.59280000
C        0.02880000       1.33090000       0.56990000
C       -1.27190000       1.56410000      -0.20080000
O       -1.24460000       2.82470000      -0.83900000
C       -1.38540000       2.83050000      -2.25050000
C       -0.22610000       2.16540000      -3.00270000
C        1.15940000       2.45320000      -2.40870000
O        1.50020000       1.55140000      -1.36420000
C        1.30040000       1.95000000      -0.02270000
H       -1.41010000       0.73790000      -0.91160000
H       -2.09920000       1.52410000       0.51700000
H       -2.34280000       2.37410000      -2.54610000
H       -1.43410000       3.89260000      -2.51290000
H       -0.34400000       1.07640000      -3.03840000
H       -0.26010000       2.51270000      -4.04290000
H        1.91960000       2.30310000      -3.18340000
H        1.23480000       3.49390000      -2.06310000
H        1.24880000       3.04310000       0.07370000
H        2.14310000       1.58120000       0.56990000
