20
Properties=species:S:1:pos:R:3 gdb_70545=T pbc="F F F"
C       -0.11450000       1.52150000       0.01880000
C        0.02890000       0.01530000       0.03390000
C       -0.84120000      -0.79740000       0.96920000
C        0.64310000      -0.67230000       1.22270000
C        1.56480000      -1.83330000       0.92560000
O        1.09860000      -2.66660000      -0.14170000
C        0.57030000      -2.10360000      -1.26940000
N        0.20770000      -2.82140000      -2.24810000
C        0.42120000      -0.60110000      -1.30210000
H        0.81080000       2.00550000      -0.31590000
H       -0.91650000       1.83550000      -0.65950000
H       -0.35100000       1.90620000       1.01580000
H       -1.50820000      -0.25500000       1.63030000
H       -1.23020000      -1.75110000       0.62970000
H        0.96530000      -0.06060000       2.06110000
H        2.57290000      -1.46420000       0.68510000
H        1.65470000      -2.50610000       1.78390000
H        0.40720000      -3.80480000      -2.05010000
H       -0.29930000      -0.36820000      -2.08990000
H        1.38170000      -0.16620000      -1.61650000
