13
Properties=species:S:1:pos:R:3 gdb_128176=T pbc="F F F"
C       -0.03890000       1.49340000       0.10650000
N        0.15950000       0.05860000      -0.04860000
C        0.65260000      -0.70030000       0.95970000
C        0.70830000      -2.06560000       1.13160000
O        1.35920000      -2.30130000       2.30220000
N        1.68700000      -1.06890000       2.83340000
N        1.27760000      -0.15180000       2.05980000
C        0.23130000      -3.12570000       0.34930000
N       -0.18870000      -3.95980000      -0.33900000
H        0.87890000       1.95220000       0.47820000
H       -0.26940000       1.91670000      -0.87250000
H       -0.85260000       1.73690000       0.80200000
H       -0.43970000      -0.41830000      -0.70340000
