20
Properties=species:S:1:pos:R:3 gdb_69048=T pbc="F F F"
C        0.02420000       1.49490000       0.21110000
C        0.10900000       0.00420000       0.06150000
C       -0.65690000      -0.95790000       0.95020000
C        0.84390000      -1.03730000       0.89200000
C        1.32230000      -1.77570000      -0.35610000
C        0.52090000      -0.74280000      -1.21990000
O        1.64980000      -0.80840000       2.00640000
C        1.52880000      -1.67600000       3.03890000
N        2.28820000      -1.56690000       4.03970000
H        0.90290000       1.98530000      -0.22200000
H       -0.86390000       1.89500000      -0.29210000
H       -0.03110000       1.78140000       1.26590000
H       -1.04700000      -0.50730000       1.85790000
H       -1.28060000      -1.74530000       0.53060000
H        2.40040000      -1.67620000      -0.49810000
H        1.04600000      -2.83180000      -0.44130000
H       -0.30270000      -1.14670000      -1.81680000
H        1.16990000      -0.15130000      -1.86990000
H        0.73290000      -2.41600000       2.88910000
H        2.05970000      -2.28370000       4.72560000
