25
Properties=species:S:1:pos:R:3 gdb_80475=T pbc="F F F"
C        0.00570000       1.58080000      -0.04430000
C        0.06800000       0.06910000       0.00970000
C        1.31750000      -0.73670000      -0.26840000
C        2.66130000      -0.02500000      -0.14610000
C        2.95220000       0.17070000       1.37490000
C        3.54530000       1.54490000       1.69970000
C        1.64310000      -0.23870000       2.15460000
C        1.03380000       0.80870000       3.09970000
C        0.67670000      -0.78780000       1.10290000
H        0.91910000       2.06340000       0.30930000
H       -0.15650000       1.91610000      -1.07560000
H       -0.82450000       1.96470000       0.55880000
H       -0.83080000      -0.38540000      -0.40380000
H        1.24640000      -1.57390000      -0.95490000
H        3.44960000      -0.62130000      -0.61580000
H        2.65980000       0.93930000      -0.66930000
H        3.71310000      -0.56770000       1.65210000
H        2.86280000       2.36260000       1.44510000
H        3.79650000       1.64120000       2.76080000
H        4.46730000       1.70210000       1.12950000
H        1.90920000      -1.09310000       2.78940000
H        0.74370000       1.72770000       2.58590000
H        0.13440000       0.40220000       3.57440000
H        1.73110000       1.07890000       3.89940000
H        0.09300000      -1.65470000       1.39860000
