17
Properties=species:S:1:pos:R:3 gdb_47246=T pbc="F F F"
N       -0.27520000       1.36360000      -0.38100000
C       -0.02100000       0.18410000       0.03390000
N        1.18540000      -0.24960000       0.55920000
C        1.62330000      -1.52670000       0.93550000
C        0.94360000      -2.64220000       1.22130000
C       -0.53750000      -2.88440000       1.26070000
C       -1.40470000      -1.61150000       1.27250000
C       -1.17200000      -0.81750000       0.00250000
O       -1.84640000      -0.95050000      -0.98670000
H        0.53190000       1.98570000      -0.28040000
H        1.91090000       0.45160000       0.54090000
H        2.70670000      -1.56010000       0.99350000
H        1.56170000      -3.50370000       1.45570000
H       -0.84150000      -3.50590000       0.40650000
H       -0.77420000      -3.47550000       2.15420000
H       -2.46200000      -1.88480000       1.30340000
H       -1.16480000      -1.00580000       2.15300000
