21
Properties=species:S:1:pos:R:3 gdb_115939=T pbc="F F F"
O        0.05420000       1.40870000      -0.07240000
C        0.04500000      -0.01150000      -0.04720000
C       -1.40530000      -0.48390000      -0.00360000
C       -2.18480000      -0.07490000      -1.26200000
C       -3.67640000      -0.40090000      -1.11450000
C       -3.90390000      -1.83910000      -0.70680000
O       -3.16180000      -2.82540000      -1.43140000
C       -2.83460000      -2.61100000      -0.05030000
C       -1.47000000      -2.00550000       0.23110000
H        0.96380000       1.70380000      -0.17060000
H        0.53810000      -0.42970000      -0.94070000
H        0.58540000      -0.39420000       0.83440000
H       -1.87430000       0.01670000       0.85580000
H       -2.04870000       0.99420000      -1.44220000
H       -1.78150000      -0.60960000      -2.13030000
H       -4.13090000       0.24630000      -0.35180000
H       -4.21030000      -0.20060000      -2.05140000
H       -4.93990000      -2.12070000      -0.51000000
H       -3.12210000      -3.44400000       0.59210000
H       -0.74100000      -2.51720000      -0.41220000
H       -1.18430000      -2.23380000       1.26460000
