17
Properties=species:S:1:pos:R:3 gdb_39018=T pbc="F F F"
C        0.05190000       1.47480000      -0.23630000
C        1.31460000       0.72520000      -0.01720000
C        2.07260000       0.84880000       1.31700000
N        1.19940000       1.06760000       2.48550000
C        0.16200000       0.36880000       2.37140000
O       -1.01450000       0.40590000       3.07460000
C       -1.71270000      -0.23340000       1.94230000
C       -0.34890000      -0.48840000       1.25230000
N        0.01590000       0.01050000      -0.07060000
H       -0.29890000       2.10830000       0.57440000
H       -0.22000000       1.81440000      -1.23070000
H        1.96000000       0.52400000      -0.86970000
H        2.69060000      -0.04940000       1.45860000
H        2.76690000       1.69260000       1.24800000
H       -2.27740000      -1.10810000       2.26850000
H       -2.36070000       0.48900000       1.44070000
H       -0.04810000      -1.53790000       1.31470000
