15
Properties=species:S:1:pos:R:3 gdb_4570=T pbc="F F F"
C       -0.03080000       1.50570000       0.01730000
C       -0.01370000       0.00210000      -0.01400000
C        0.23550000      -0.72280000      -1.17630000
N        0.25650000      -2.05710000      -1.21950000
C        0.01290000      -2.69670000      -0.07470000
N       -0.03190000      -4.07570000      -0.10970000
C       -0.23730000      -1.97380000       1.11000000
N       -0.24700000      -0.65260000       1.13790000
H        0.18230000       1.92600000      -0.96910000
H       -1.00720000       1.87660000       0.34630000
H        0.71240000       1.88920000       0.72400000
H        0.43340000      -0.20870000      -2.11450000
H        0.40190000      -4.47970000      -0.92660000
H        0.16890000      -4.56120000       0.75040000
H       -0.43120000      -2.49580000       2.04580000
