19
Properties=species:S:1:pos:R:3 gdb_76724=T pbc="F F F"
O       -0.16610000       1.33890000      -0.12990000
C       -0.10260000      -0.05430000      -0.06120000
C       -0.40640000      -0.69170000       1.27540000
O       -0.78100000       0.20350000       2.29590000
C       -1.38480000      -0.84760000       0.13500000
C       -2.72920000      -0.14910000       0.13450000
C       -3.17150000       0.23160000      -1.29230000
C       -4.47520000       0.99180000      -1.29140000
O       -5.46220000       0.68380000      -1.90910000
H       -0.39560000       1.63990000       0.76070000
H        0.68210000      -0.45920000      -0.69290000
H        0.14630000      -1.56480000       1.61500000
H        0.00510000       0.39860000       2.81780000
H       -1.39080000      -1.83660000      -0.31730000
H       -3.47910000      -0.80130000       0.59720000
H       -2.68300000       0.75140000       0.75300000
H       -2.40080000       0.88750000      -1.71950000
H       -3.27740000      -0.64740000      -1.93500000
H       -4.46860000       1.90280000      -0.64550000
