12
Properties=species:S:1:pos:R:3 gdb_132677=T pbc="F F F"
O        0.10200000       1.33420000       0.07880000
C        0.06920000      -0.00820000       0.03910000
N        0.07920000      -0.61460000      -1.13960000
C        0.04650000      -1.93370000      -1.16180000
F        0.05840000      -2.48970000      -2.36890000
C        0.00210000      -2.74700000      -0.04170000
C       -0.00830000      -2.10390000       1.19710000
C        0.02540000      -0.72520000       1.24210000
F        0.01710000      -0.06800000       2.40180000
H        0.12930000       1.63350000      -0.84080000
H       -0.02300000      -3.82380000      -0.13680000
H       -0.04220000      -2.66290000       2.12500000
