25
Properties=species:S:1:pos:R:3 gdb_115714=T pbc="F F F"
C       -0.66720000       1.72360000       0.54530000
C       -0.39450000       0.22260000       0.69030000
C       -1.60910000      -0.60530000       0.28860000
O       -1.94290000      -0.40340000      -1.11040000
C       -1.61150000      -1.76600000      -1.43720000
C       -1.46240000      -2.14080000       0.05230000
C       -0.22980000      -2.92220000       0.50780000
C       -0.21720000      -3.11370000       2.03160000
C       -0.16850000      -4.28220000      -0.20490000
H        0.22060000       2.31380000       0.79060000
H       -0.96330000       1.95620000      -0.48120000
H       -1.47730000       2.04410000       1.21000000
H        0.46190000      -0.05700000       0.06550000
H       -0.12380000      -0.01200000       1.72730000
H       -2.46230000      -0.32930000       0.92420000
H       -2.41080000      -2.26130000      -2.00020000
H       -0.67980000      -1.83130000      -2.01860000
H       -2.35780000      -2.66140000       0.41000000
H        0.66730000      -2.35580000       0.22390000
H       -1.08600000      -3.69920000       2.35570000
H        0.68160000      -3.65020000       2.35270000
H       -0.24330000      -2.15890000       2.56490000
H        0.72160000      -4.84350000       0.09730000
H       -1.04550000      -4.89260000       0.04180000
H       -0.13630000      -4.16870000      -1.29340000
