16
Properties=species:S:1:pos:R:3 gdb_15122=T pbc="F F F"
N        0.11180000      -1.10300000       0.41700000
C        0.07250000       0.03560000       0.22810000
C        0.01460000       1.48440000       0.01430000
N        1.35090000       2.06010000      -0.05580000
C        1.33280000       3.50790000      -0.24130000
C        2.74630000       4.02840000      -0.25510000
C        3.10060000       5.32140000       0.33870000
O        3.38380000       4.10160000       1.02620000
H       -0.50050000       1.67040000      -0.93680000
H       -0.62550000       1.91900000       0.80460000
H        1.86330000       1.84250000       0.79380000
H        0.85270000       3.72860000      -1.20430000
H        0.75990000       4.03950000       0.54000000
H        3.38040000       3.62200000      -1.04290000
H        3.96930000       5.86280000      -0.03180000
H        2.32390000       5.94030000       0.78620000
