15
Properties=species:S:1:pos:R:3 gdb_87315=T pbc="F F F"
O       -0.29030000       1.35960000       0.06910000
C       -0.13550000      -0.02070000       0.13710000
C       -0.80780000      -0.79960000       1.22560000
C       -1.37970000      -0.84120000      -0.19140000
C       -2.68100000      -0.09060000      -0.48200000
C       -3.84080000      -0.68920000       0.17770000
N       -4.75060000      -1.15520000       0.71570000
C       -1.17630000      -2.04720000      -0.95200000
N       -1.00350000      -3.00890000      -1.57090000
H        0.18390000       1.75740000       0.80730000
H        0.80100000      -0.40450000      -0.26290000
H       -0.33190000      -1.69530000       1.60560000
H       -1.39820000      -0.24410000       1.94650000
H       -2.56690000       0.94280000      -0.14380000
H       -2.85960000      -0.05600000      -1.56130000
