23
Properties=species:S:1:pos:R:3 gdb_115972=T pbc="F F F"
C       -0.03960000       1.55180000       0.03830000
C       -0.02480000       0.02290000      -0.02910000
C        0.70960000      -0.52030000      -1.25110000
C        0.82260000      -2.04920000      -1.25990000
C        1.27540000      -2.56440000      -2.60750000
C        1.77230000      -3.98160000      -2.66610000
C        1.22040000      -1.76530000      -3.67320000
C        0.67940000      -0.36400000      -3.61090000
O        0.00080000      -0.08010000      -2.40430000
H        0.97710000       1.95400000       0.11300000
H       -0.50020000       1.96910000      -0.86040000
H       -0.60130000       1.90360000       0.90890000
H        0.44840000      -0.39300000       0.86910000
H       -1.05220000      -0.36140000      -0.05220000
H        1.73070000      -0.09710000      -1.27640000
H        1.53010000      -2.36740000      -0.48200000
H       -0.14570000      -2.49640000      -0.99110000
H        1.00360000      -4.68340000      -2.31680000
H        2.05730000      -4.26960000      -3.68170000
H        2.64190000      -4.12490000      -2.01150000
H        1.56860000      -2.10750000      -4.64530000
H        1.49700000       0.36400000      -3.77390000
H       -0.04910000      -0.19940000      -4.41450000
