17
Properties=species:S:1:pos:R:3 gdb_11896=T pbc="F F F"
C       -0.00260000       1.45300000       0.02660000
C       -0.06430000      -0.03430000      -0.02170000
N       -1.07450000      -0.76440000       0.23160000
C       -0.64410000      -2.13210000       0.04920000
C       -1.20270000      -3.20320000       0.94590000
C       -1.61380000      -3.13880000      -0.50730000
C        0.83200000      -2.06360000      -0.36540000
O        1.10410000      -0.64750000      -0.37930000
H        0.76150000       1.77780000       0.74000000
H        0.27760000       1.85280000      -0.95320000
H       -0.97290000       1.85100000       0.32140000
H       -0.53530000      -4.00080000       1.25800000
H       -1.92400000      -2.89080000       1.69210000
H       -2.61140000      -2.78310000      -0.73760000
H       -1.22690000      -3.89240000      -1.18640000
H        1.51230000      -2.54150000       0.34790000
H        1.02740000      -2.46510000      -1.36570000
