14
Properties=species:S:1:pos:R:3 gdb_13447=T pbc="F F F"
O       -0.04180000       1.38620000       0.27650000
C        0.10470000       0.00550000       0.12440000
C       -0.66070000      -0.81020000       1.14210000
O       -1.39710000      -0.10490000       2.08010000
C       -1.11780000      -0.77150000      -0.31360000
O       -2.20460000       0.05590000      -0.64680000
C       -3.40450000      -0.22880000      -0.05870000
O       -4.36440000       0.44940000      -0.24780000
H       -0.74970000       1.67350000      -0.31620000
H        1.08790000      -0.30550000      -0.21610000
H       -0.24340000      -1.74040000       1.51640000
H       -1.12820000       0.82280000       1.98510000
H       -1.00240000      -1.64250000      -0.95160000
H       -3.36460000      -1.13720000       0.56260000
