20
Properties=species:S:1:pos:R:3 gdb_116926=T pbc="F F F"
C        0.77810000       1.35050000      -0.27170000
O        0.90200000      -0.04450000      -0.41850000
C       -0.31450000      -0.64460000      -0.82420000
C       -0.14750000      -2.08340000      -0.96630000
C       -0.03890000      -3.27520000      -1.10330000
C        0.10470000      -4.69880000      -1.22230000
N        0.05630000      -5.28830000      -2.58710000
C        1.31450000      -5.33940000      -1.83830000
C        2.46960000      -4.53750000      -2.38000000
H        0.49090000       1.83940000      -1.21670000
H        0.03050000       1.61850000       0.49230000
H        1.75350000       1.73050000       0.04020000
H       -1.10990000      -0.43180000      -0.08810000
H       -0.65340000      -0.21310000      -1.78270000
H       -0.37360000      -5.26760000      -0.42720000
H       -0.42420000      -6.18350000      -2.54360000
H        1.58720000      -6.29790000      -1.39710000
H        2.12300000      -3.57550000      -2.76240000
H        3.21180000      -4.35200000      -1.59660000
H        2.96100000      -5.07820000      -3.19570000
