22
Properties=species:S:1:pos:R:3 gdb_119483=T pbc="F F F"
C       -0.03100000       1.60110000      -0.07340000
C       -0.02610000       0.07240000      -0.15030000
C       -1.40240000      -0.54900000       0.13560000
C       -1.39600000      -2.05100000       0.09830000
C       -1.53780000      -2.88270000      -1.15040000
C       -2.55120000      -3.03600000      -0.04160000
C       -1.98750000      -3.84460000       1.16160000
N       -0.61040000      -4.30330000       0.83770000
C       -0.85630000      -2.90990000       1.29260000
H        0.95990000       2.01550000      -0.28400000
H       -0.73230000       2.03190000      -0.79710000
H       -0.33200000       1.94780000       0.92170000
H        0.31080000      -0.25050000      -1.14290000
H        0.70670000      -0.32930000       0.56180000
H       -1.75610000      -0.20570000       1.11930000
H       -2.13120000      -0.17420000      -0.59540000
H       -1.90480000      -2.33090000      -2.01130000
H       -0.84440000      -3.68320000      -1.37420000
H       -3.60420000      -2.81990000      -0.17170000
H       -2.57810000      -4.34140000       1.92020000
H       -0.27440000      -4.82340000       1.64800000
H       -0.37100000      -2.51230000       2.17540000
