16
Properties=species:S:1:pos:R:3 gdb_62286=T pbc="F F F"
O       -0.03520000       1.35290000       0.07060000
C        0.01120000      -0.06400000      -0.01170000
C        0.84310000      -0.62380000       1.04820000
C        1.55970000      -1.06000000       1.91030000
C       -1.43150000      -0.54590000      -0.20730000
C       -1.31660000      -0.42650000      -1.67800000
C        0.24130000      -0.55880000      -1.48250000
C       -0.02190000      -2.06530000      -1.38410000
N       -1.46480000      -1.77410000      -1.06410000
H        0.86660000       1.66400000       0.20630000
H        2.17910000      -1.45170000       2.67950000
H       -2.27120000      -0.36930000       0.45080000
H       -1.96440000      -0.01430000      -2.43830000
H        1.04230000      -0.11150000      -2.06840000
H        0.01520000      -2.57960000      -2.34740000
H        0.52280000      -2.63880000      -0.62740000
