21
Properties=species:S:1:pos:R:3 gdb_109091=T pbc="F F F"
C        0.02550000       1.56590000       0.18050000
C       -0.00570000       0.04870000      -0.08190000
C       -1.39170000      -0.53800000      -0.02410000
C       -2.01100000      -1.03500000      -1.11770000
C       -3.38160000      -1.47880000      -1.19790000
C       -4.43230000      -0.99910000      -0.47750000
C       -4.36280000       0.05280000       0.50820000
C       -3.29170000       0.31920000       1.27940000
C       -2.09530000      -0.59530000       1.31710000
H        1.05180000       1.94460000       0.14430000
H       -0.56610000       2.10100000      -0.56830000
H       -0.38470000       1.81000000       1.16570000
H        0.43570000      -0.15540000      -1.06350000
H        0.63180000      -0.44820000       0.66360000
H       -1.43930000      -1.09870000      -2.04230000
H       -3.60980000      -2.17600000      -2.00170000
H       -5.42600000      -1.34600000      -0.75180000
H       -5.24410000       0.68420000       0.60260000
H       -3.28570000       1.20590000       1.90780000
H       -2.42950000      -1.62540000       1.50320000
H       -1.41480000      -0.31610000       2.12590000
