20
Properties=species:S:1:pos:R:3 gdb_76087=T pbc="F F F"
C       -0.12380000       1.55430000      -0.14280000
C        0.06090000       0.06650000       0.04930000
C        1.40060000      -0.60660000      -0.13610000
C        2.56750000       0.16630000      -0.45880000
C        3.56290000       0.78530000      -0.73210000
N        0.75650000      -0.51430000       1.19120000
C        1.33230000       0.33040000       2.20190000
C        0.59490000       0.39300000       3.51330000
C        1.89540000      -0.36700000       3.41060000
H        0.81170000       2.10680000      -0.04080000
H       -0.51820000       1.75010000      -1.14500000
H       -0.84300000       1.94890000       0.58260000
H       -0.80320000      -0.52570000      -0.25170000
H        1.41470000      -1.61760000      -0.53880000
H        4.44190000       1.32860000      -0.97670000
H        1.84920000       1.23150000       1.87890000
H        0.58040000       1.33640000       4.04780000
H       -0.31580000      -0.18940000       3.58940000
H        1.83970000      -1.44910000       3.41580000
H        2.78220000       0.05050000       3.87370000
