22
Properties=species:S:1:pos:R:3 gdb_68833=T pbc="F F F"
C       -0.06130000       1.52910000       0.06830000
C        0.14290000       0.04730000       0.00800000
C        0.68820000      -0.75700000      -1.18680000
C        1.29450000      -1.74950000      -0.16690000
C        1.41990000      -3.23730000      -0.26070000
C        2.65950000      -2.36610000      -0.23670000
C        0.73470000      -0.92330000       0.98100000
C        1.31710000      -0.75270000       2.34900000
N       -0.74180000      -0.89850000       0.74440000
H        0.80760000       2.06420000      -0.33010000
H       -0.93630000       1.83190000      -0.51970000
H       -0.22150000       1.86790000       1.09820000
H       -0.07170000      -1.15220000      -1.86690000
H        1.45060000      -0.21470000      -1.75440000
H        1.19250000      -3.82950000       0.61980000
H        1.14840000      -3.71300000      -1.19750000
H        3.22660000      -2.25100000      -1.15540000
H        3.27070000      -2.37680000       0.66080000
H        2.39410000      -0.56130000       2.29790000
H        0.85130000       0.08830000       2.87420000
H        1.16490000      -1.64920000       2.96250000
H       -1.14660000      -0.36780000       1.51840000
