13
Properties=species:S:1:pos:R:3 gdb_42377=T pbc="F F F"
O       -0.22340000      -0.12150000       0.00150000
C       -0.12240000       1.08010000       0.00560000
C        1.22200000       1.82680000      -0.00260000
C        2.38450000       0.96290000      -0.01700000
C        3.36360000       0.25400000      -0.02900000
C        4.46430000      -0.54530000      -0.04250000
C        5.44280000      -1.25250000      -0.05450000
C       -1.27760000       1.96030000       0.01900000
C       -2.22140000       2.70710000       0.03010000
H        1.21810000       2.49990000      -0.87170000
H        1.23330000       2.49120000       0.87320000
H        6.30090000      -1.87760000      -0.06510000
H       -3.06950000       3.34850000       0.04020000
