23
Properties=species:S:1:pos:R:3 gdb_41399=T pbc="F F F"
C       -0.09480000       1.47560000      -0.17450000
C        1.43350000       1.58440000       0.10410000
C        1.53240000       0.03850000       0.17520000
C        2.55060000      -0.78770000      -0.65280000
C        3.03600000      -1.49520000       0.64680000
C        1.93540000      -0.75010000       1.45730000
C        0.66540000      -1.54120000       1.83670000
C       -0.50260000      -0.65540000       1.35220000
C       -0.01340000      -0.06790000       0.01110000
H       -0.74990000       1.99650000       0.52950000
H       -0.37270000       1.78330000      -1.18550000
H        2.01340000       2.03850000      -0.70490000
H        1.69860000       2.09460000       1.03550000
H        2.09360000      -1.44870000      -1.39600000
H        3.31410000      -0.18960000      -1.15900000
H        2.96410000      -2.58640000       0.65560000
H        4.05450000      -1.22160000       0.93310000
H        2.30240000      -0.15070000       2.29630000
H        0.64900000      -2.49610000       1.29580000
H        0.60500000      -1.77960000       2.90310000
H       -1.44610000      -1.20360000       1.26740000
H       -0.66970000       0.15570000       2.07240000
H       -0.36830000      -0.65710000      -0.84030000
