14
Properties=species:S:1:pos:R:3 gdb_127657=T pbc="F F F"
C        0.08110000       1.41280000      -0.03710000
N        0.08180000      -0.03130000       0.03370000
N        0.14540000      -0.80200000      -1.10110000
C        0.12910000      -2.04960000      -0.70060000
N        0.05670000      -2.10370000       0.66530000
N        0.00430000      -2.97770000       1.71420000
C       -0.05340000      -2.11960000       2.73420000
N       -0.04360000      -0.78110000       2.45000000
C        0.02690000      -0.82290000       1.12940000
H        1.00080000       1.77140000      -0.50650000
H       -0.77840000       1.76450000      -0.61340000
H        0.01850000       1.79580000       0.98240000
H        0.16720000      -2.90510000      -1.35270000
H       -0.10610000      -2.48570000       3.74960000
