16
Properties=species:S:1:pos:R:3 gdb_45627=T pbc="F F F"
O       -0.00570000       0.06590000      -0.10930000
C        0.02120000       1.26890000      -0.04910000
C       -1.09300000       2.30450000      -0.26800000
N       -0.49830000       3.62160000      -0.03810000
C        0.72830000       3.40410000       0.25780000
N        1.12110000       2.06530000       0.25240000
N        1.67440000       4.34810000       0.63270000
C        2.59480000       4.87170000      -0.39170000
C        1.49560000       5.71290000       0.15850000
H       -1.49290000       2.22080000      -1.28500000
H       -1.92620000       2.11280000       0.41800000
H        2.01980000       1.71600000       0.54330000
H        3.61860000       5.01350000      -0.06050000
H        2.47920000       4.49750000      -1.40540000
H        0.63200000       5.89730000      -0.47200000
H        1.71980000       6.48100000       0.89140000
