19
Properties=species:S:1:pos:R:3 gdb_76889=T pbc="F F F"
C       -0.21770000       1.57210000       0.06850000
C        0.03270000       0.06920000       0.00050000
C        0.83370000      -0.46980000      -1.20810000
C        2.23540000       0.15750000      -1.28070000
O        2.88140000      -0.43140000      -0.12980000
C        1.90640000      -1.36200000       0.37560000
O        1.18910000      -1.79400000      -0.74940000
C        0.88950000      -0.52260000       1.18780000
O        1.52260000       0.42010000       2.01820000
H        0.70770000       2.14360000       0.17250000
H       -0.74110000       1.92370000      -0.82710000
H       -0.83660000       1.81480000       0.93670000
H       -0.93060000      -0.44990000      -0.01640000
H        0.29900000      -0.53150000      -2.15510000
H        2.76850000      -0.14110000      -2.18940000
H        2.24260000       1.24730000      -1.19720000
H        2.41260000      -2.18540000       0.87760000
H        0.27540000      -1.15580000       1.83330000
H        2.34370000       0.65560000       1.56350000
