21
Properties=species:S:1:pos:R:3 gdb_80643=T pbc="F F F"
C       -0.11600000       1.53010000       0.03720000
C        0.08940000       0.01440000       0.01650000
C        0.95340000      -0.52130000      -1.14700000
C        1.19250000      -1.99690000      -0.72130000
C        2.01980000      -1.32440000       0.41210000
C        2.40530000      -0.25790000      -0.65640000
C        0.90840000      -0.61800000       1.22670000
C        1.42090000       0.37290000       2.24140000
O        0.93810000       0.53690000       3.33470000
H        0.82800000       2.08230000      -0.00820000
H       -0.71890000       1.84110000      -0.82240000
H       -0.64160000       1.84670000       0.94350000
H       -0.89770000      -0.45910000      -0.00840000
H        0.62820000      -0.25570000      -2.15390000
H        0.32440000      -2.60030000      -0.43830000
H        1.82170000      -2.54530000      -1.42600000
H        2.77380000      -1.87280000       0.97830000
H        3.15600000      -0.63370000      -1.35500000
H        2.67930000       0.74940000      -0.33300000
H        0.28530000      -1.32950000       1.77550000
H        2.30980000       0.96610000       1.92540000
