16
Properties=species:S:1:pos:R:3 gdb_131543=T pbc="F F F"
O        0.06190000       1.42640000      -0.15610000
C        0.00390000       0.01260000      -0.01520000
C        0.57000000      -0.49930000       1.36270000
N       -0.33370000      -1.58520000       1.83930000
C       -1.54200000      -1.36510000       1.14410000
C       -1.39280000      -0.48880000       0.10150000
N       -2.57110000      -0.46900000      -0.56810000
N       -3.49540000      -1.25240000       0.02310000
C       -2.87180000      -1.82310000       1.06370000
H        0.96170000       1.66400000      -0.40260000
H        0.53740000      -0.46070000      -0.85480000
H        1.59750000      -0.86560000       1.28310000
H        0.55520000       0.36750000       2.03670000
H       -0.42700000      -1.59330000       2.84820000
H       -2.84560000       0.10240000      -1.34830000
H       -3.41260000      -2.51300000       1.69320000
