16
Properties=species:S:1:pos:R:3 gdb_69124=T pbc="F F F"
C       -0.05150000       1.51610000      -0.00790000
C       -0.03030000       0.01040000       0.05360000
C       -1.22960000      -0.77750000      -0.46400000
C       -1.15880000      -2.12980000       0.24380000
O       -1.80540000      -3.11280000       0.01200000
C       -0.13120000      -2.00080000       1.41790000
O       -0.04770000      -2.77580000       2.33370000
C        0.61840000      -0.73490000       1.19660000
N        1.26220000      -0.63170000      -0.13830000
H        0.87700000       1.92820000       0.39410000
H       -0.15260000       1.85610000      -1.04440000
H       -0.89390000       1.91740000       0.56440000
H       -2.17760000      -0.29510000      -0.19360000
H       -1.22780000      -0.89280000      -1.55320000
H        1.13910000      -0.25470000       2.01710000
H        1.19690000      -1.50670000      -0.65860000
