15
Properties=species:S:1:pos:R:3 gdb_16859=T pbc="F F F"
N       -0.10070000       1.28780000       0.48530000
C       -0.03340000       0.12000000       0.01040000
C       -1.24830000      -0.78140000      -0.04110000
O       -1.23160000      -1.60390000      -1.20110000
C       -0.11470000      -2.44010000      -1.18980000
C        0.93600000      -2.19210000      -2.24130000
C        1.17370000      -1.76980000      -0.81510000
O        1.12160000      -0.39220000      -0.51430000
H        0.81790000       1.73610000       0.46270000
H       -1.29800000      -1.39560000       0.87110000
H       -2.13990000      -0.15710000      -0.08630000
H       -0.30940000      -3.45550000      -0.84720000
H        1.49700000      -3.03510000      -2.62830000
H        0.72060000      -1.40130000      -2.95050000
H        1.91230000      -2.28940000      -0.21350000
