17
Properties=species:S:1:pos:R:3 gdb_79889=T pbc="F F F"
O        0.13560000       1.34900000      -0.09950000
C       -0.11700000      -0.02140000      -0.02280000
C       -0.46650000      -0.78310000       1.22490000
C       -1.57450000      -0.07970000       2.01340000
O       -1.58150000       1.39600000       2.00850000
C       -2.62810000       1.41890000       0.98560000
C       -2.54120000      -0.11030000       0.82410000
C       -1.43220000      -0.73140000      -0.04570000
O       -1.76570000      -1.70090000      -0.96770000
H       -0.17870000       1.72550000       0.73680000
H        0.61290000      -0.56530000      -0.62550000
H        0.17780000      -1.55610000       1.62880000
H       -1.80950000      -0.48130000       3.00010000
H       -3.57210000       1.76550000       1.41970000
H       -2.35420000       2.04100000       0.13020000
H       -3.45220000      -0.70540000       0.84360000
H       -1.26800000      -1.54710000      -1.77710000
