16
Properties=species:S:1:pos:R:3 gdb_5308=T pbc="F F F"
C       -0.04830000       1.57400000       0.23350000
C       -0.02790000       0.05690000       0.00850000
O        0.73180000      -0.60200000       1.02290000
C       -1.40220000      -0.52180000      -0.10770000
C       -2.06850000      -1.20610000      -1.07490000
C       -3.37050000      -1.49860000      -0.54830000
C       -3.39470000      -0.97470000       0.70280000
O       -2.20790000      -0.37190000       0.98850000
H        0.97500000       1.94440000       0.33550000
H       -0.53190000       2.08810000      -0.60310000
H       -0.60230000       1.81840000       1.14560000
H        0.49630000      -0.16420000      -0.92690000
H        0.22650000      -0.53840000       1.84120000
H       -1.67980000      -1.47460000      -2.04480000
H       -4.17170000      -2.02990000      -1.03740000
H       -4.13580000      -0.94190000       1.48430000
