23
Properties=species:S:1:pos:R:3 gdb_118679=T pbc="F F F"
C       -0.16090000       1.48210000      -0.24390000
C       -0.00230000       0.00350000       0.04110000
C        1.33590000      -0.67700000      -0.08090000
O        2.41850000       0.13990000      -0.43050000
C        0.68600000      -0.54630000       1.28830000
C        1.29010000       0.42310000       2.28830000
C        0.07740000      -1.80940000       1.88050000
C        1.06510000      -2.70230000       2.62770000
O        0.37260000      -3.88600000       2.99860000
H        0.77280000       2.02750000      -0.10070000
H       -0.46730000       1.63410000      -1.28440000
H       -0.92810000       1.93110000       0.39630000
H       -0.84480000      -0.59540000      -0.29720000
H        1.36130000      -1.66980000      -0.53310000
H        3.20010000      -0.18900000       0.02530000
H        1.75600000       1.27660000       1.79430000
H        0.52510000       0.80340000       2.97530000
H        2.06180000      -0.05950000       2.89900000
H       -0.74300000      -1.54890000       2.56210000
H       -0.36800000      -2.41410000       1.08200000
H        1.92390000      -2.93080000       1.97440000
H        1.45910000      -2.18410000       3.51510000
H        0.97050000      -4.43620000       3.51250000
