16
Properties=species:S:1:pos:R:3 gdb_34490=T pbc="F F F"
N       -0.06170000      -1.11400000       0.22160000
C       -0.06530000       0.03670000       0.08190000
C       -0.04030000       1.44240000      -0.09410000
C       -1.08380000       2.26760000      -0.21780000
C       -2.45320000       2.59370000       0.31060000
O       -1.91100000       3.87540000       0.76160000
C       -0.71820000       3.70500000      -0.08510000
C        0.70130000       3.66840000       0.50290000
C        1.24190000       2.28890000      -0.00170000
H       -3.23880000       2.73760000      -0.44110000
H       -2.82830000       1.97340000       1.13000000
H       -0.80980000       4.34120000      -0.97470000
H        1.33130000       4.50950000       0.20440000
H        0.62920000       3.65700000       1.59460000
H        1.96170000       1.84160000       0.68850000
H        1.74330000       2.37820000      -0.97270000
