19
Properties=species:S:1:pos:R:3 gdb_106437=T pbc="F F F"
C       -0.05010000       1.34460000       0.01460000
O        0.01570000      -0.06770000       0.09230000
C        0.68810000      -0.54270000       1.18950000
C        2.20330000      -0.39400000       1.55220000
C        1.57770000      -1.31480000       2.63550000
C        0.37260000      -0.33490000       2.70890000
C        0.84100000      -2.07030000       1.47150000
C       -0.32680000      -2.87660000       1.75880000
C       -1.28260000      -3.57080000       1.98500000
H        0.95040000       1.79410000      -0.05410000
H       -0.61120000       1.58650000      -0.89010000
H       -0.56910000       1.77340000       0.88300000
H        2.92050000      -0.85160000       0.86590000
H        2.53420000       0.58900000       1.89420000
H        2.08960000      -1.78450000       3.47110000
H        0.58570000       0.65230000       3.12580000
H       -0.57130000      -0.74160000       3.07360000
H        1.51190000      -2.58300000       0.77500000
H       -2.13070000      -4.17840000       2.18250000
