20
Properties=species:S:1:pos:R:3 gdb_52242=T pbc="F F F"
O       -0.58570000       0.76790000       0.89690000
C        0.04030000       0.99990000      -0.10460000
C        1.32800000       1.78810000      -0.16270000
C        1.21760000       2.99600000      -1.11240000
C        2.53920000       3.74720000      -1.25400000
C        3.74100000       3.10910000      -2.01100000
N        3.90750000       4.31930000      -2.89520000
C        2.65260000       4.41560000      -3.65880000
C        2.64620000       4.89210000      -2.26180000
H       -0.31620000       0.63640000      -1.09820000
H        1.59580000       2.09630000       0.85230000
H        2.11340000       1.11240000      -0.53300000
H        0.87380000       2.65430000      -2.09680000
H        0.44920000       3.68400000      -0.73720000
H        2.86680000       4.08710000      -0.26640000
H        4.63200000       2.95960000      -1.39920000
H        3.53700000       2.18950000      -2.57270000
H        2.68900000       5.17030000      -4.43860000
H        2.13270000       3.50210000      -3.94080000
H        2.56640000       5.94670000      -2.01620000
