19
Properties=species:S:1:pos:R:3 gdb_104695=T pbc="F F F"
O        0.17480000       1.29680000       0.19060000
C        0.04040000      -0.05390000      -0.27500000
C       -1.37890000      -0.56070000      -0.12400000
C       -2.42020000       0.23790000      -0.89890000
O       -2.57160000       1.55970000      -0.41990000
C       -1.71610000      -2.04120000       0.01160000
C       -0.70500000      -2.75600000       0.90290000
O       -0.83020000      -1.73730000       1.93340000
C       -1.87480000      -1.10160000       1.18720000
H        0.06030000       1.27680000       1.14770000
H        0.31850000      -0.02280000      -1.33380000
H        0.75410000      -0.70110000       0.24400000
H       -2.15040000       0.22510000      -1.96910000
H       -3.40230000      -0.24230000      -0.81240000
H       -1.67550000       1.90940000      -0.31190000
H       -2.45920000      -2.52470000      -0.60900000
H       -1.07680000      -3.71690000       1.27530000
H        0.32520000      -2.87430000       0.54870000
H       -2.73650000      -0.72800000       1.72830000
