14
Properties=species:S:1:pos:R:3 gdb_28652=T pbc="F F F"
N       -0.01640000       1.41390000       0.12820000
C        0.00190000       0.03330000       0.04300000
C       -1.16970000      -0.73740000       0.03390000
N       -1.16160000      -2.06220000       0.01050000
C        0.03830000      -2.66390000      -0.00510000
N        1.22140000      -2.02980000      -0.00380000
C        1.19380000      -0.70530000       0.01970000
C        0.05760000      -4.09500000      -0.02860000
C        0.07380000      -5.29750000      -0.04810000
H        0.81410000       1.88790000      -0.19440000
H       -0.86320000       1.86510000      -0.18420000
H       -2.14550000      -0.25210000       0.04640000
H        2.15610000      -0.19360000       0.02050000
H        0.08820000      -6.35910000      -0.06490000
