13
Properties=species:S:1:pos:R:3 gdb_48749=T pbc="F F F"
O       -0.13210000      -0.02950000       0.13990000
C        0.00930000       1.16420000       0.14220000
C        1.32700000       1.84510000      -0.00550000
O        1.35360000       3.26000000       0.26840000
C        1.59930000       2.83100000      -1.07450000
C        3.05770000       2.71510000      -1.41430000
C        3.66370000       1.81220000      -0.63420000
C        2.68040000       1.16650000       0.28670000
O        2.88410000       0.29890000       1.09230000
H       -0.83840000       1.87690000       0.24470000
H        0.85850000       3.13140000      -1.80910000
H        3.52760000       3.32800000      -2.17350000
H        4.71700000       1.56530000      -0.61030000
