17
Properties=species:S:1:pos:R:3 gdb_53466=T pbc="F F F"
C        0.08290000       1.48790000       0.04440000
C        0.02600000       0.03650000      -0.04630000
C       -0.02450000      -1.16300000      -0.12050000
C       -0.08190000      -2.61170000      -0.20950000
C       -1.47730000      -3.19330000      -0.01650000
O       -2.47160000      -2.52920000       0.16040000
C       -1.58090000      -4.71570000      -0.04910000
N       -2.87490000      -5.14060000       0.00870000
N       -0.49820000      -5.39340000      -0.14270000
H        0.74860000       1.81190000       0.85210000
H        0.45150000       1.93210000      -0.88690000
H       -0.90860000       1.90940000       0.24280000
H        0.28810000      -2.97600000      -1.17710000
H        0.57820000      -3.09770000       0.51920000
H       -3.56370000      -4.44000000       0.23840000
H       -3.08280000      -6.10290000       0.21230000
H       -0.67820000      -6.39970000      -0.14870000
