15
Properties=species:S:1:pos:R:3 gdb_11371=T pbc="F F F"
O        0.52780000       0.11660000       0.88380000
C       -0.18900000       0.37360000      -0.31670000
C       -1.54820000      -0.26840000      -0.30610000
N       -2.61050000       0.22220000      -0.82030000
C       -3.66450000      -0.77720000      -0.59350000
C       -3.02500000      -1.91610000       0.20070000
N       -3.61330000      -2.94920000       0.64500000
N       -1.68980000      -1.51860000       0.28820000
H        0.11800000       0.62930000       1.58860000
H       -0.30640000       1.44160000      -0.53110000
H        0.41320000      -0.06570000      -1.12020000
H       -4.50750000      -0.33810000      -0.05020000
H       -4.05890000      -1.14310000      -1.54820000
H       -2.97110000      -3.57090000       1.13910000
H       -0.97050000      -1.95650000       0.83990000
