14
Properties=species:S:1:pos:R:3 gdb_5493=T pbc="F F F"
C       -0.03550000       1.49670000       0.05770000
C       -0.01140000       0.00310000       0.01970000
C       -0.02450000      -0.81190000      -1.06430000
O        0.00660000      -2.12590000      -0.69560000
C        0.04030000      -2.15510000       0.65340000
C        0.03210000      -0.88720000       1.16500000
C        0.05950000      -0.51100000       2.52680000
C        0.08220000      -0.15940000       3.67870000
H        0.85150000       1.89490000       0.56220000
H       -0.06960000       1.91640000      -0.95100000
H       -0.90710000       1.86520000       0.60940000
H       -0.05390000      -0.62480000      -2.12510000
H        0.06780000      -3.12830000       1.11430000
H        0.10280000       0.13990000       4.69700000
