15
Properties=species:S:1:pos:R:3 gdb_28264=T pbc="F F F"
O        0.23110000       1.28380000       0.18590000
C        0.12350000      -0.04810000       0.01800000
N        0.19530000      -0.71160000      -1.10250000
C        0.04900000      -2.03900000      -0.70160000
C       -0.11160000      -2.11400000       0.62970000
N       -0.07420000      -0.83470000       1.13670000
O       -0.33220000      -3.31620000       1.20320000
C       -0.15150000      -4.24070000       0.06730000
C       -0.09690000      -3.41810000      -1.27300000
H        0.36930000       1.65170000      -0.69590000
H       -0.12480000      -0.52040000       2.08990000
H        0.78850000      -4.77220000       0.24110000
H       -0.97820000      -4.95150000       0.10700000
H       -1.01120000      -3.54770000      -1.86680000
H        0.74140000      -3.75500000      -1.89240000
