14
Properties=species:S:1:pos:R:3 gdb_5412=T pbc="F F F"
O        0.13290000       1.13100000       0.80200000
C       -0.02660000       0.12340000      -0.18040000
C       -1.42230000      -0.43720000      -0.08680000
C       -2.18720000      -0.35520000       1.07600000
N       -3.41210000      -0.87940000       1.17050000
C       -3.87160000      -1.49360000       0.08060000
N       -3.24490000      -1.62780000      -1.09000000
C       -2.02610000      -1.09140000      -1.15810000
H        1.06090000       1.38000000       0.83160000
H        0.14030000       0.51670000      -1.19610000
H        0.70170000      -0.69110000      -0.03220000
H       -1.79810000       0.15770000       1.94980000
H       -4.86580000      -1.92850000       0.15010000
H       -1.50880000      -1.18530000      -2.11270000
