16
Properties=species:S:1:pos:R:3 gdb_28607=T pbc="F F F"
O        0.72110000       1.23670000       0.18560000
C        0.20340000      -0.00010000      -0.01250000
C       -0.39980000      -0.64810000      -1.05400000
N       -0.73540000      -1.93860000      -0.66610000
C       -0.34320000      -2.05190000       0.57520000
N        0.24030000      -0.89490000       1.02880000
N       -0.45530000      -3.14570000       1.44570000
C       -1.16820000      -4.31130000       0.91840000
C        0.30480000      -4.36510000       1.07970000
H        0.61610000       1.74200000      -0.62650000
H       -0.61660000      -0.27450000      -2.04270000
H        0.58570000      -0.72250000       1.95800000
H       -1.81250000      -4.80770000       1.63780000
H       -1.55600000      -4.22400000      -0.09110000
H        0.90510000      -4.31270000       0.17610000
H        0.75190000      -4.89270000       1.91670000
