20
Properties=species:S:1:pos:R:3 gdb_90485=T pbc="F F F"
C       -0.15530000       1.93900000       0.81430000
C       -0.04510000       0.42240000       0.70870000
C        0.69310000      -0.25760000      -0.47590000
N        1.51990000      -1.12990000       0.45190000
C        2.34140000      -0.26060000       1.30940000
C        3.18410000       0.91970000       0.92140000
C        4.07990000       0.89600000      -0.24440000
O        2.90560000       1.71640000      -0.22810000
C        0.89950000      -0.35790000       1.62520000
H        0.80680000       2.43150000       0.66030000
H       -0.84910000       2.32510000       0.05910000
H       -0.54260000       2.23300000       1.79670000
H       -1.04450000      -0.01460000       0.80230000
H        0.05430000      -0.90300000      -1.08160000
H        1.28060000       0.39270000      -1.12200000
H        2.93720000      -0.89040000       1.97460000
H        3.51050000       1.50340000       1.78550000
H        5.02410000       1.43660000      -0.21910000
H        4.03750000       0.04610000      -0.92290000
H        0.57600000      -0.87580000       2.52500000
