19
Properties=species:S:1:pos:R:3 gdb_29577=T pbc="F F F"
N        0.19560000       1.35230000      -0.19450000
C        0.06450000      -0.04560000      -0.07680000
C       -1.09250000      -0.79270000      -0.07130000
N       -0.73330000      -2.10870000       0.15260000
C        0.62220000      -2.20250000       0.28300000
C        1.16180000      -0.93980000       0.14510000
C        2.58530000      -0.53950000       0.23420000
C        3.68680000      -1.47540000      -0.19260000
C        3.39340000      -0.25160000      -1.02220000
H        1.05330000       1.60270000      -0.67220000
H       -0.58420000       1.77610000      -0.68110000
H       -2.12340000      -0.50640000      -0.20180000
H       -1.37470000      -2.87860000       0.20100000
H        1.10450000      -3.14880000       0.46870000
H        2.82750000       0.10640000       1.07620000
H        4.59940000      -1.49400000       0.39250000
H        3.39980000      -2.43680000      -0.60340000
H        2.90210000      -0.40140000      -1.97740000
H        4.10560000       0.56640000      -1.00120000
