20
Properties=species:S:1:pos:R:3 gdb_23402=T pbc="F F F"
O       -0.14510000       1.32270000       0.00570000
N       -0.01120000      -0.08540000       0.00220000
C       -1.13850000      -0.66040000       0.00900000
C       -2.58010000      -0.18910000       0.02000000
C       -3.11330000      -0.93180000      -1.23310000
C       -2.29930000      -2.27390000      -1.24220000
C       -1.39030000      -2.15230000       0.00800000
C       -2.28160000      -2.27850000       1.27040000
C       -3.09570000      -0.93650000       1.27770000
H        0.77460000       1.60810000      -0.00020000
H       -2.74030000       0.88630000       0.02310000
H       -4.19320000      -1.09470000      -1.17000000
H       -2.92020000      -0.35140000      -2.13910000
H       -2.94190000      -3.15740000      -1.18880000
H       -1.69660000      -2.35830000      -2.15040000
H       -0.50760000      -2.79000000       0.00070000
H       -2.92500000      -3.16180000       1.22290000
H       -1.66630000      -2.36620000       2.16980000
H       -2.88990000      -0.35940000       2.18310000
H       -4.17640000      -1.09920000       1.22920000
