21
Properties=species:S:1:pos:R:3 gdb_102198=T pbc="F F F"
C        0.90070000      -0.87100000      -1.09320000
C        0.07210000      -0.13280000      -0.03480000
C       -1.44010000      -0.42850000      -0.03400000
C       -2.14400000      -0.01470000      -1.35110000
C       -1.99840000       1.39910000      -1.67400000
C       -1.87570000       2.56870000      -1.92410000
C       -1.77200000      -1.91300000       0.26200000
C       -1.25640000      -2.38490000       1.54090000
C       -0.83080000      -2.75840000       2.60150000
H        1.95520000      -0.59130000      -1.00780000
H        0.84600000      -1.95820000      -0.97610000
H        0.58420000      -0.62390000      -2.11180000
H        0.46150000      -0.37670000       0.95930000
H        0.20210000       0.94660000      -0.16650000
H       -1.88370000       0.16890000       0.77120000
H       -1.75940000      -0.62000000      -2.18220000
H       -3.21230000      -0.25580000      -1.27410000
H       -1.77160000       3.60020000      -2.15310000
H       -2.86200000      -2.04350000       0.24570000
H       -1.38220000      -2.54720000      -0.54470000
H       -0.45780000      -3.09680000       3.53620000
