19
Properties=species:S:1:pos:R:3 gdb_77498=T pbc="F F F"
C        0.05020000       1.44970000      -0.03150000
C       -0.03710000      -0.03520000       0.11010000
O        0.58210000      -0.88350000      -0.95460000
C        0.02580000      -1.87120000       0.02650000
C        0.21510000      -3.32750000      -0.24470000
C        0.62880000      -0.97880000       1.15530000
O        2.01440000      -0.93600000       1.27010000
C       -1.25120000      -1.00950000       0.04520000
O       -2.10130000      -1.17980000       1.14670000
H        1.08890000       1.78310000       0.05840000
H       -0.33950000       1.77600000      -1.00070000
H       -0.53050000       1.93540000       0.75980000
H        1.27290000      -3.59720000      -0.16710000
H       -0.34420000      -3.91440000       0.49050000
H       -0.14290000      -3.58950000      -1.24490000
H        0.18440000      -1.04040000       2.14790000
H        2.33780000      -0.88470000       0.35860000
H       -1.76980000      -0.98500000      -0.91990000
H       -2.81710000      -0.54050000       1.08250000
