15
Properties=species:S:1:pos:R:3 gdb_110179=T pbc="F F F"
O       -0.02490000       1.39230000       0.09720000
C       -0.03670000       0.00920000      -0.15470000
C       -1.46130000      -0.53620000      -0.00880000
C       -1.68110000      -2.06770000       0.15850000
O       -2.21180000      -1.84640000       1.50570000
C       -1.97400000      -0.48700000       1.41110000
N       -2.06270000       0.43140000       2.25760000
C       -2.64840000      -2.70680000      -0.72390000
N       -3.40110000      -3.20510000      -1.44460000
H       -0.42910000       1.53440000       0.96560000
H        0.32690000      -0.13650000      -1.17680000
H        0.63700000      -0.54370000       0.52160000
H       -2.12910000      -0.06920000      -0.73450000
H       -0.76480000      -2.66280000       0.20910000
H       -2.38920000       0.10750000       3.16840000
