18
Properties=species:S:1:pos:R:3 gdb_39592=T pbc="F F F"
C       -0.00140000       1.48940000      -0.01950000
N        1.41500000       1.89550000       0.01150000
C        2.08330000       0.80710000       0.03420000
N        1.35100000      -0.36960000       0.02270000
C        1.80090000      -1.74820000       0.06170000
C        0.67320000      -2.58930000       0.67390000
C       -0.67620000      -2.25490000       0.01430000
N       -0.99750000      -0.82590000      -0.01080000
C       -0.00630000      -0.03280000      -0.00310000
H       -0.53750000       1.90230000       0.84170000
H       -0.49180000       1.88150000      -0.91720000
H        3.16800000       0.75530000       0.06240000
H        2.03720000      -2.10320000      -0.95100000
H        2.71780000      -1.81740000       0.65690000
H        0.90360000      -3.65300000       0.56360000
H        0.61110000      -2.37500000       1.74680000
H       -0.69510000      -2.63910000      -1.01630000
H       -1.48120000      -2.77490000       0.54440000
