14
Properties=species:S:1:pos:R:3 gdb_124195=T pbc="F F F"
C       -0.00220000       1.48850000      -0.05250000
C        0.00220000       0.03360000      -0.01800000
C        0.00920000      -1.16880000       0.00850000
C        0.00330000      -2.62880000       0.04120000
C       -1.38310000      -3.19720000       0.05880000
N       -1.89240000      -3.88880000       1.03580000
O       -3.14400000      -4.19690000       0.62320000
N       -3.34340000      -3.65360000      -0.64570000
N       -2.29030000      -3.05750000      -0.97900000
H        1.01710000       1.88710000      -0.01010000
H       -0.46770000       1.86040000      -0.97140000
H       -0.55780000       1.90330000       0.79530000
H        0.52860000      -3.02890000      -0.83540000
H        0.52850000      -3.00290000       0.92620000
