21
Properties=species:S:1:pos:R:3 gdb_62253=T pbc="F F F"
C       -0.19080000       1.59510000      -0.13330000
C       -0.04330000       0.06650000      -0.04640000
C        0.74150000      -0.40000000       1.20130000
C        2.20930000       0.04470000       1.22540000
C        2.96510000      -0.50470000       2.44890000
C        4.43340000      -0.14700000       2.40600000
O        5.02170000       0.46580000       3.25850000
C       -1.42220000      -0.56530000      -0.00320000
O       -1.82830000      -1.40290000      -0.76550000
H        0.78310000       2.08580000      -0.20120000
H       -0.76820000       1.88340000      -1.01690000
H       -0.70520000       1.99160000       0.74970000
H        0.45000000      -0.31620000      -0.94700000
H        0.23490000      -0.03620000       2.10580000
H        0.70610000      -1.49600000       1.24800000
H        2.70650000      -0.29350000       0.30660000
H        2.27560000       1.13820000       1.23040000
H        2.54160000      -0.13020000       3.38550000
H        2.89080000      -1.60210000       2.45440000
H        4.96040000      -0.49620000       1.48600000
H       -2.06460000      -0.18870000       0.83010000
