22
Properties=species:S:1:pos:R:3 gdb_123188=T pbc="F F F"
C       -0.02090000       1.33450000       0.05160000
O       -0.04300000      -0.06990000      -0.03170000
C        0.68770000      -0.56660000      -1.12880000
C        0.59170000      -2.08690000      -1.11490000
C        1.35320000      -2.72170000      -2.26770000
O        1.19970000      -4.13760000      -2.16220000
C        1.81450000      -4.86830000      -3.11320000
N        1.74030000      -6.12340000      -3.10920000
C        2.42790000      -6.83390000      -4.16590000
H        1.00370000       1.72180000       0.17150000
H       -0.46140000       1.80500000      -0.84200000
H       -0.61000000       1.61950000       0.92650000
H        0.28570000      -0.16060000      -2.07440000
H        1.74250000      -0.24350000      -1.06660000
H        0.98610000      -2.46630000      -0.16700000
H       -0.46050000      -2.38400000      -1.16800000
H        0.96030000      -2.37410000      -3.23400000
H        2.41960000      -2.45710000      -2.22430000
H        2.36380000      -4.27430000      -3.86190000
H        2.95640000      -6.17900000      -4.87880000
H        3.15810000      -7.52580000      -3.73040000
H        1.71060000      -7.44330000      -4.72770000
