17
Properties=species:S:1:pos:R:3 gdb_50585=T pbc="F F F"
O       -0.94660000       1.15600000       0.23310000
C        0.18710000       0.87820000      -0.05820000
C        1.34430000       1.85510000       0.05850000
C        1.37640000       2.54540000       1.42090000
O        2.43430000       3.48770000       1.48070000
C        3.64630000       3.06560000       0.92520000
C        4.37910000       1.82010000       1.36590000
C        3.70220000       1.87440000       0.00800000
O        2.53420000       1.11180000      -0.15350000
H        0.48360000      -0.12320000      -0.43860000
H        1.22050000       2.62710000      -0.72040000
H        0.44870000       3.09640000       1.58630000
H        1.47690000       1.78540000       2.21030000
H        4.24430000       3.93380000       0.67030000
H        5.46160000       1.85680000       1.42020000
H        3.90650000       1.17290000       2.09600000
H        4.30700000       1.91070000      -0.89480000
