20
Properties=species:S:1:pos:R:3 gdb_94374=T pbc="F F F"
C       -0.39540000       1.38270000       0.03620000
C        0.10900000      -0.04400000      -0.02890000
O        1.33600000      -0.16140000      -0.80050000
C        2.03430000      -0.75940000       0.30540000
C        0.79490000      -0.66160000       1.21100000
C        0.88980000       0.01870000       2.62040000
C        0.30350000      -1.25810000       3.23120000
N       -1.01410000      -1.45360000       2.57720000
C        0.22800000      -1.90510000       1.89510000
H        0.35650000       2.04800000       0.47180000
H       -0.62750000       1.74350000      -0.97100000
H       -1.30610000       1.43410000       0.64140000
H       -0.66940000      -0.69990000      -0.44330000
H        2.37320000      -1.78050000       0.07980000
H        2.90170000      -0.16290000       0.61910000
H        1.92950000       0.19590000       2.90900000
H        0.30470000       0.92800000       2.77720000
H        0.50700000      -1.68650000       4.20460000
H       -1.43720000      -2.28110000       2.99810000
H        0.35660000      -2.94000000       1.59890000
