23
Properties=species:S:1:pos:R:3 gdb_110008=T pbc="F F F"
C       -0.90190000       1.05250000      -0.01710000
C        0.14330000      -0.06360000      -0.01640000
C        1.29260000       0.12870000      -1.03910000
C        2.41590000      -0.66420000      -0.42170000
C        2.19430000      -0.96200000       0.86150000
C        3.09260000      -1.74260000       1.76980000
C        0.87020000      -0.36780000       1.33190000
C        1.07150000       0.86430000       2.22430000
O        1.68820000       0.44470000       3.43690000
H       -0.46030000       2.03020000       0.20420000
H       -1.37670000       1.12740000      -1.00140000
H       -1.69450000       0.86730000       0.71610000
H       -0.36390000      -0.99610000      -0.29290000
H        1.01300000      -0.22050000      -2.04040000
H        1.56170000       1.19050000      -1.15170000
H        3.31060000      -0.94300000      -0.96960000
H        3.99470000      -2.07560000       1.24800000
H        3.37900000      -1.14620000       2.64070000
H        2.57790000      -2.63030000       2.16040000
H        0.29720000      -1.08810000       1.93080000
H        1.69320000       1.60850000       1.70180000
H        0.09760000       1.33130000       2.43380000
H        1.82180000       1.22080000       3.98860000
