21
Properties=species:S:1:pos:R:3 gdb_60856=T pbc="F F F"
C        0.74770000       0.01830000      -1.31200000
C        0.05800000       0.01100000       0.05280000
C        0.04060000       1.38990000       0.69330000
O        0.55040000       2.37140000       0.21180000
C       -1.36990000      -0.58570000       0.04550000
C       -2.34460000       0.18530000      -0.83460000
C       -1.42680000      -2.13090000      -0.08850000
C       -1.93860000      -2.10550000       1.36380000
O       -1.87060000      -0.66610000       1.41480000
H        1.78730000       0.33770000      -1.20950000
H        0.73660000      -0.97720000      -1.76600000
H        0.26480000       0.71940000      -1.99700000
H        0.62900000      -0.61830000       0.75340000
H       -0.48360000       1.43120000       1.67040000
H       -2.04100000       0.14920000      -1.88520000
H       -3.34550000      -0.24640000      -0.75050000
H       -2.40090000       1.23600000      -0.53190000
H       -2.13720000      -2.49940000      -0.83040000
H       -0.46400000      -2.62150000      -0.24020000
H       -2.96080000      -2.47080000       1.51750000
H       -1.28370000      -2.57330000       2.10860000
