23
Properties=species:S:1:pos:R:3 gdb_95513=T pbc="F F F"
C       -0.10380000       1.51860000      -0.12460000
C        0.03040000       0.00730000       0.01050000
O        0.70230000      -0.43900000      -1.16560000
C        0.63990000      -1.83820000      -1.34510000
C        0.93010000      -2.59800000      -0.08270000
C        1.00860000      -1.98620000       1.09490000
C        0.77520000      -0.49800000       1.27730000
C        2.13580000       0.20690000       1.45790000
C       -0.09630000      -0.28580000       2.52990000
H        0.87650000       1.98980000      -0.23210000
H       -0.68920000       1.75470000      -1.01710000
H       -0.60830000       1.95340000       0.74230000
H       -0.98020000      -0.43720000       0.03180000
H       -0.34830000      -2.13500000      -1.74530000
H        1.37710000      -2.08170000      -2.12010000
H        1.07240000      -3.67170000      -0.17480000
H        1.24530000      -2.55210000       1.99420000
H        2.71110000       0.16530000       0.52940000
H        2.01020000       1.25580000       1.74580000
H        2.72130000      -0.28380000       2.24250000
H        0.39530000      -0.70880000       3.41290000
H       -0.26650000       0.77710000       2.72740000
H       -1.07080000      -0.77490000       2.42620000
