19
Properties=species:S:1:pos:R:3 gdb_83311=T pbc="F F F"
C       -0.22300000       1.52550000      -0.09920000
C        0.01260000       0.03060000      -0.00200000
C        1.34990000      -0.63660000      -0.22320000
C        2.60350000       0.20340000      -0.05820000
O        2.48320000       0.87270000       1.19870000
C        1.63910000       0.12810000       2.04750000
C        0.90900000       1.03170000       3.02640000
O        0.93720000       2.23190000       3.03740000
C        0.70370000      -0.67900000       1.14530000
H        0.59700000       2.10520000       0.32560000
H       -0.34980000       1.81840000      -1.14740000
H       -1.13840000       1.80580000       0.43240000
H       -0.81340000      -0.55560000      -0.40010000
H        1.41340000      -1.52230000      -0.84520000
H        3.49330000      -0.44460000      -0.07000000
H        2.73430000       0.97800000      -0.82110000
H        2.21520000      -0.58860000       2.66620000
H        0.31470000       0.45230000       3.77240000
H        0.27760000      -1.59000000       1.54910000
