19
Properties=species:S:1:pos:R:3 gdb_70096=T pbc="F F F"
C       -0.09150000       1.48450000      -0.02390000
C        0.02030000      -0.02010000      -0.00160000
C       -0.52970000      -0.81510000       1.15820000
C        0.97180000      -0.77860000       0.91130000
C        1.50230000      -1.90900000       0.09690000
C        0.97630000      -1.92450000      -1.13260000
C        0.06320000      -0.76460000      -1.32730000
C       -1.01560000      -0.71040000      -2.32500000
O        0.19860000       0.00990000      -2.53560000
H        0.68990000       1.92870000      -0.64630000
H       -1.05830000       1.80680000      -0.42770000
H       -0.00420000       1.89310000       0.98730000
H       -0.91510000      -0.24380000       1.99760000
H       -1.04660000      -1.75070000       0.96990000
H        1.60820000      -0.27320000       1.62980000
H        2.19530000      -2.64280000       0.49220000
H        1.15290000      -2.66220000      -1.90540000
H       -1.18250000      -1.55500000      -2.99350000
H       -1.89670000      -0.10040000      -2.12500000
