21
Properties=species:S:1:pos:R:3 gdb_40444=T pbc="F F F"
C        0.62010000       1.43040000       0.15710000
O        1.20130000       0.19990000      -0.28410000
C       -0.19100000       0.20950000       0.03790000
C       -0.63020000      -0.59160000       1.21980000
C        0.37750000      -0.99440000       2.26680000
C       -0.24850000      -2.05230000       1.38720000
C       -1.45530000      -2.80650000       1.92540000
C       -2.37570000      -1.70930000       2.50910000
C       -2.08170000      -0.44520000       1.66920000
H        0.93400000       1.76210000       1.14550000
H        0.54980000       2.20950000      -0.60050000
H       -0.84250000       0.12820000      -0.83590000
H        1.41000000      -0.74720000       2.04700000
H        0.11050000      -0.93770000       3.31740000
H        0.39260000      -2.53530000       0.65790000
H       -1.95380000      -3.32620000       1.09800000
H       -1.19440000      -3.56640000       2.67020000
H       -3.43180000      -1.98980000       2.48360000
H       -2.12650000      -1.52750000       3.55910000
H       -2.27010000       0.47900000       2.22680000
H       -2.72580000      -0.41860000       0.78000000
