13
Properties=species:S:1:pos:R:3 gdb_43320=T pbc="F F F"
O        0.00330000      -0.00450000      -0.05810000
C       -0.03620000       1.19580000      -0.01130000
C       -1.23840000       2.06930000       0.13090000
C       -0.89550000       3.36080000       0.05650000
C        0.59370000       3.51250000      -0.06280000
O        1.29880000       2.96940000       1.06480000
C        1.17140000       2.15640000      -0.12900000
C        2.35580000       1.77150000      -0.82540000
C        3.33340000       1.40960000      -1.42240000
H       -2.22780000       1.65800000       0.28130000
H       -1.56830000       4.20750000       0.11570000
H        1.05460000       4.36950000      -0.54220000
H        4.20150000       1.08990000      -1.94450000
