21
Properties=species:S:1:pos:R:3 gdb_122708=T pbc="F F F"
C       -0.05530000       1.51870000      -0.22680000
C        0.07300000       0.02690000       0.09170000
C        0.73510000      -0.77410000      -1.03600000
C        0.85070000      -2.26290000      -0.69110000
N        1.45710000      -3.16840000      -1.65490000
C        1.88310000      -2.73380000      -2.76270000
N        2.46130000      -3.61610000      -3.67390000
C        2.95320000      -3.24400000      -4.90070000
O        2.94540000      -2.11640000      -5.33700000
H        0.92650000       1.97220000      -0.40240000
H       -0.65890000       1.68120000      -1.12660000
H       -0.53070000       2.06210000       0.59570000
H        0.65200000      -0.10210000       1.01570000
H       -0.92150000      -0.39090000       0.29690000
H        0.15280000      -0.64790000      -1.95870000
H        1.73150000      -0.35830000      -1.23750000
H        1.41430000      -2.37530000       0.24600000
H       -0.14900000      -2.66220000      -0.46820000
H        1.86370000      -1.70870000      -3.13280000
H        2.50890000      -4.58430000      -3.38860000
H        3.36480000      -4.10950000      -5.45370000
