14
Properties=species:S:1:pos:R:3 gdb_131187=T pbc="F F F"
O        0.71670000       1.15360000      -0.25750000
C        0.23070000      -0.09930000      -0.11850000
C       -0.13710000      -0.98160000      -1.10060000
O       -0.55720000      -2.09630000      -0.49130000
N       -0.43710000      -1.88060000       0.91160000
N        0.02260000      -0.70720000       1.07600000
N       -0.23600000      -0.88370000      -2.47040000
C        0.89580000      -0.34360000      -3.22720000
C        0.54480000      -1.78750000      -3.32310000
H        0.87420000       1.50130000       0.62850000
H        0.62100000       0.33920000      -4.02420000
H        1.78780000      -0.07390000      -2.67010000
H        1.19560000      -2.50230000      -2.82800000
H        0.01140000      -2.16450000      -4.18900000
