16
Properties=species:S:1:pos:R:3 gdb_53083=T pbc="F F F"
C       -0.07010000       1.46450000       0.01960000
C        0.00570000       0.01340000       0.01410000
C        0.06340000      -1.19160000       0.00880000
C        0.08740000      -2.60130000      -0.00360000
C        1.13200000      -3.43500000       0.13640000
C        0.68660000      -4.86830000       0.05660000
N       -0.73520000      -4.73350000      -0.14520000
C       -1.16810000      -3.42840000      -0.19240000
O       -2.30500000      -3.04730000      -0.35070000
H        0.53350000       1.89650000      -0.78660000
H       -1.10230000       1.80470000      -0.11590000
H        0.29730000       1.87770000       0.96580000
H        2.16530000      -3.15450000       0.28730000
H        1.17930000      -5.39880000      -0.77220000
H        0.92890000      -5.41840000       0.97850000
H       -1.37480000      -5.50270000      -0.24520000
