24
Properties=species:S:1:pos:R:3 gdb_121497=T pbc="F F F"
C        0.00110000       1.52500000      -0.08180000
C        0.00530000       0.00870000      -0.03020000
O       -1.35170000      -0.43080000       0.07840000
C       -1.54440000      -1.76330000       0.04870000
N       -2.69350000      -2.25320000       0.19860000
C       -2.82730000      -3.69570000       0.13130000
C       -3.51770000      -4.26560000       1.38380000
C       -3.82670000      -5.75470000       1.18880000
C       -2.68110000      -4.02810000       2.64570000
H        1.02530000       1.90080000      -0.16090000
H       -0.56870000       1.87860000      -0.94530000
H       -0.45330000       1.93870000       0.82240000
H        0.46090000      -0.41180000      -0.93740000
H        0.58120000      -0.35110000       0.83350000
H       -0.62960000      -2.35360000      -0.12380000
H       -3.44560000      -3.93720000      -0.74390000
H       -1.85500000      -4.20450000      -0.01230000
H       -4.46540000      -3.72300000       1.49490000
H       -2.90560000      -6.33560000       1.05700000
H       -4.35190000      -6.16440000       2.05750000
H       -4.45500000      -5.92250000       0.30740000
H       -1.71850000      -4.55180000       2.58090000
H       -2.47800000      -2.96340000       2.78880000
H       -3.19860000      -4.39800000       3.53700000
