22
Properties=species:S:1:pos:R:3 gdb_89157=T pbc="F F F"
C       -0.58290000       1.37220000      -0.06400000
C       -0.04780000      -0.05330000      -0.04020000
C        1.22640000      -0.35090000      -0.90610000
C        2.01250000      -0.66740000       0.38360000
N        2.51290000       0.56370000       1.05180000
C        3.89130000       0.59900000       1.48480000
C        1.45990000       0.49780000       2.09030000
C        0.71880000      -0.55530000       1.23630000
O        0.19400000      -1.67840000       1.88300000
H        0.21760000       2.09650000       0.11500000
H       -1.02260000       1.60110000      -1.04090000
H       -1.36150000       1.52730000       0.69220000
H       -0.85300000      -0.76110000      -0.26290000
H        1.10050000      -1.21410000      -1.56540000
H        1.61890000       0.49140000      -1.48050000
H        2.67780000      -1.53530000       0.42540000
H        4.55550000       0.55280000       0.61490000
H        4.09040000       1.54160000       2.00680000
H        4.16210000      -0.22920000       2.16730000
H        1.79980000       0.02970000       3.02780000
H        0.97650000       1.45510000       2.31850000
H       -0.69780000      -1.46620000       2.18090000
