19
Properties=species:S:1:pos:R:3 gdb_77622=T pbc="F F F"
C        0.01940000       1.56270000      -0.00020000
C        0.07090000       0.05380000      -0.08690000
C        0.66250000      -0.75500000      -1.21740000
C       -0.08280000      -1.83910000      -1.93850000
C        1.95090000      -0.09520000      -1.73250000
N        2.49700000       0.03260000      -0.33860000
C        1.33770000      -0.73820000       0.17230000
C        1.46390000      -1.75940000       1.15550000
N        1.57810000      -2.60010000       1.94460000
H        0.98560000       2.00650000      -0.24740000
H       -0.73950000       1.96440000      -0.67980000
H       -0.24020000       1.87600000       1.01580000
H       -0.80080000      -0.45080000       0.32570000
H       -0.66700000      -1.42390000      -2.76880000
H        0.59950000      -2.58950000      -2.35180000
H       -0.78000000      -2.35090000      -1.26830000
H        2.53210000      -0.78460000      -2.35280000
H        1.85230000       0.86160000      -2.25620000
H        3.35420000      -0.50070000      -0.23710000
