23
Properties=species:S:1:pos:R:3 gdb_104859=T pbc="F F F"
C       -0.29270000       1.35340000       0.18000000
O       -0.51610000       0.03060000      -0.27580000
C        0.42390000      -0.50130000      -1.18260000
C        0.27420000       0.09170000      -2.58440000
O        0.80240000       1.41280000      -2.60930000
C        1.91050000      -0.59660000      -0.72590000
C        1.92180000      -2.07640000      -1.19780000
C        0.36420000      -2.06340000      -1.23890000
C       -0.29850000      -2.72350000      -0.03460000
H        0.71460000       1.47370000       0.60300000
H       -0.41830000       2.09370000      -0.61630000
H       -1.02660000       1.53500000       0.97000000
H        0.80360000      -0.54970000      -3.30600000
H       -0.79580000       0.07990000      -2.84230000
H        0.67680000       1.77030000      -3.49300000
H        2.61190000       0.09790000      -1.19020000
H        1.99290000      -0.51510000       0.36040000
H        2.37590000      -2.20260000      -2.18400000
H        2.37330000      -2.80280000      -0.51750000
H       -0.08020000      -2.45730000      -2.15990000
H        0.13170000      -2.36810000       0.90620000
H       -1.36990000      -2.50920000      -0.00450000
H       -0.16250000      -3.80960000      -0.08160000
