20
Properties=species:S:1:pos:R:3 gdb_112796=T pbc="F F F"
C        0.06040000       1.60340000       0.00930000
C       -0.06170000       0.08180000      -0.00300000
N        0.51690000      -0.49540000      -1.20390000
C       -0.16650000      -0.30670000      -2.50130000
C        0.30440000      -1.72330000      -2.90870000
O        1.47310000      -1.77370000      -3.68630000
C        0.49480000      -1.95950000      -1.36490000
C        1.74190000      -2.69190000      -0.92520000
O        1.76630000      -3.84930000      -0.59700000
H        1.10880000       1.90720000      -0.06020000
H       -0.47880000       2.05100000      -0.83230000
H       -0.36220000       2.01520000       0.93030000
H        0.46900000      -0.34150000       0.85880000
H       -1.12500000      -0.20960000       0.10520000
H       -1.26360000      -0.24120000      -2.41370000
H        0.19440000       0.52720000      -3.11350000
H       -0.42090000      -2.37440000      -3.39550000
H        2.08560000      -1.11040000      -3.34790000
H       -0.38900000      -2.45610000      -0.93410000
H        2.66190000      -2.06390000      -0.94120000
