19
Properties=species:S:1:pos:R:3 gdb_102763=T pbc="F F F"
C       -0.00440000       1.47700000       0.01490000
C        0.00070000       0.02100000       0.00470000
C        0.01590000      -1.18340000       0.00730000
C       -0.01310000      -2.64270000      -0.01650000
C       -1.47120000      -3.15490000       0.08490000
O       -1.52970000      -4.56380000       0.20630000
C        0.69420000      -3.19380000      -1.28320000
C        0.89200000      -4.69300000      -1.25010000
O        0.43990000      -5.46100000      -2.06430000
H        1.01520000       1.87780000       0.00840000
H       -0.52450000       1.87990000      -0.86100000
H       -0.50740000       1.86610000       0.90700000
H        0.51660000      -3.02980000       0.86550000
H       -1.92770000      -2.73590000       0.98650000
H       -2.04640000      -2.78980000      -0.77700000
H       -1.52070000      -4.95640000      -0.67240000
H        0.13560000      -2.92660000      -2.18540000
H        1.68900000      -2.73470000      -1.34690000
H        1.52300000      -5.05750000      -0.40840000
