16
Properties=species:S:1:pos:R:3 gdb_50943=T pbc="F F F"
O       -0.38190000       0.31410000      -0.25630000
C       -0.20420000       1.43060000       0.11630000
O        0.72860000       2.23600000      -0.45680000
C        0.92720000       3.52590000       0.09800000
C        1.55490000       3.44420000       1.48790000
O        1.65900000       2.42420000       2.11320000
C        1.82500000       4.32470000      -0.83630000
C        2.94670000       3.66590000      -1.54960000
N        1.75240000       4.13000000      -2.28210000
H       -0.77560000       1.93220000       0.91600000
H       -0.03730000       4.05210000       0.20100000
H        1.90590000       4.42110000       1.88590000
H        1.92890000       5.36290000      -0.52800000
H        3.85650000       4.22260000      -1.75250000
H        3.07470000       2.59740000      -1.40720000
H        1.16020000       3.32610000      -2.48090000
