17
Properties=species:S:1:pos:R:3 gdb_18482=T pbc="F F F"
O        0.17150000       1.23200000       0.88640000
C        0.18200000       0.04150000       0.10880000
C       -1.19540000      -0.58130000       0.05450000
C       -1.54050000      -1.99070000      -0.22680000
C       -0.55750000      -3.00200000       0.37120000
O        0.77570000      -3.04310000      -0.08980000
C       -0.75270000      -2.27960000       1.71840000
N       -1.81370000      -1.36990000       1.14840000
H       -0.17060000       1.00530000       1.75760000
H        0.46430000       0.34970000      -0.90390000
H        0.94410000      -0.66690000       0.44690000
H       -1.93460000       0.12340000      -0.32480000
H       -2.35550000      -2.25200000      -0.89630000
H       -0.99770000      -4.00720000       0.38680000
H        0.78650000      -3.44430000      -0.96520000
H       -1.19050000      -2.90460000       2.49810000
H        0.13110000      -1.77640000       2.11950000
