18
Properties=species:S:1:pos:R:3 gdb_32479=T pbc="F F F"
C        0.05470000       1.56550000       0.13200000
C       -0.09960000       0.04640000      -0.05560000
C        0.65510000      -0.48740000      -1.24060000
C        0.10550000      -0.89990000      -2.44950000
N        1.10730000      -1.29190000      -3.27640000
C        2.31690000      -1.14950000      -2.63810000
C        3.54340000      -1.50960000      -3.30960000
O        3.58900000      -1.94550000      -4.44680000
C        2.05510000      -0.64850000      -1.36830000
H        1.10540000       1.83990000       0.26900000
H       -0.31650000       2.10710000      -0.74370000
H       -0.50200000       1.91070000       1.00900000
H        0.23810000      -0.46290000       0.85540000
H       -1.16230000      -0.19920000      -0.16440000
H       -0.92750000      -0.93890000      -2.76060000
H        1.03390000      -1.64940000      -4.21530000
H        4.46340000      -1.35910000      -2.70700000
H        2.80160000      -0.43000000      -0.61820000
