21
Properties=species:S:1:pos:R:3 gdb_90939=T pbc="F F F"
C       -0.07940000       1.50600000      -0.04240000
N        0.05620000       0.06250000      -0.04580000
C        0.80880000      -0.48330000      -1.18990000
C        1.39990000      -1.77130000      -0.64010000
N        2.40480000      -1.71380000       0.47610000
C        2.24180000      -0.37640000       1.13920000
C        0.69100000      -0.51950000       1.13360000
C        0.94390000      -1.99570000       0.74320000
C        0.41490000      -3.24460000       1.37090000
H        0.88590000       2.04640000      -0.02340000
H       -0.62070000       1.82590000      -0.93890000
H       -0.66180000       1.82060000       0.82970000
H        0.14510000      -0.67830000      -2.04150000
H        1.59580000       0.20510000      -1.54420000
H        1.57960000      -2.60520000      -1.30950000
H        2.68420000      -0.43180000       2.13710000
H        2.68260000       0.47080000       0.60170000
H        0.14510000      -0.28030000       2.04770000
H       -0.66700000      -3.32790000       1.21800000
H        0.89170000      -4.12460000       0.92910000
H        0.60610000      -3.26480000       2.44960000
