21
Properties=species:S:1:pos:R:3 gdb_112124=T pbc="F F F"
C        0.16740000       1.40760000       0.13540000
O       -0.13180000       0.05020000      -0.08490000
C        0.58730000      -0.54730000      -1.15700000
C        2.06810000      -0.68120000      -0.87690000
C        2.60990000      -1.85780000      -0.57380000
C        1.78910000      -3.10990000      -0.46270000
O        0.40070000      -2.86830000      -0.44590000
C       -0.01690000      -1.93400000      -1.43480000
C       -1.53710000      -1.94580000      -1.45500000
H        1.19150000       1.55910000       0.50590000
H        0.03920000       2.00800000      -0.78030000
H       -0.53150000       1.77170000       0.89280000
H        0.44950000       0.07090000      -2.06290000
H        2.68610000       0.20900000      -0.94860000
H        3.68010000      -1.96250000      -0.41050000
H        2.05800000      -3.79700000      -1.28910000
H        2.02280000      -3.63760000       0.46990000
H        0.36820000      -2.25250000      -2.41980000
H       -1.92720000      -1.64120000      -0.48290000
H       -1.91570000      -1.25380000      -2.21350000
H       -1.89660000      -2.95150000      -1.68710000
