17
Properties=species:S:1:pos:R:3 gdb_72296=T pbc="F F F"
C       -0.06920000       1.48890000      -0.08210000
C        0.08370000      -0.01410000       0.02970000
C        1.23830000      -0.69220000      -0.80880000
N        1.02780000      -2.13380000      -0.46960000
C        0.39220000      -2.01530000       0.62590000
C        0.32610000      -0.68890000       1.42090000
C       -1.17330000      -1.01520000       1.59390000
C       -1.30660000      -0.78640000       0.12860000
N       -1.05440000      -2.21210000       0.72810000
H        0.88910000       1.98900000       0.09610000
H       -0.40850000       1.77050000      -1.08610000
H       -0.79490000       1.87950000       0.63780000
H        1.14090000      -0.60040000      -1.89600000
H        2.20700000      -0.25240000      -0.52190000
H        1.05600000      -0.33280000       2.14190000
H       -1.87430000      -0.93500000       2.41250000
H       -2.18200000      -0.68840000      -0.50180000
