20
Properties=species:S:1:pos:R:3 gdb_22994=T pbc="F F F"
C       -0.09220000       1.47300000      -0.19370000
C        0.01530000      -0.03560000       0.05970000
C        0.87090000      -0.35880000       1.29120000
C       -1.37990000      -0.64030000       0.21490000
O       -2.22770000      -0.44490000      -0.95630000
C       -2.42030000      -1.86560000      -1.14880000
C       -1.53970000      -2.13430000       0.04350000
N       -1.07420000      -3.12460000       0.67350000
O       -1.50340000      -4.33300000       0.09610000
H        0.89680000       1.90650000      -0.37250000
H       -0.72210000       1.67780000      -1.06310000
H       -0.52940000       1.98500000       0.67200000
H        0.47350000      -0.50470000      -0.82110000
H        0.44880000       0.10070000       2.19290000
H        0.93440000      -1.43740000       1.46140000
H        1.88600000       0.03070000       1.16600000
H       -1.86770000      -0.23670000       1.11520000
H       -3.46850000      -2.17120000      -1.03830000
H       -2.04280000      -2.22130000      -2.11560000
H       -1.09120000      -4.99100000       0.66640000
