16
Properties=species:S:1:pos:R:3 gdb_70850=T pbc="F F F"
O       -0.08050000       1.34810000       0.03730000
C        0.08480000      -0.02480000       0.00220000
C        1.11920000      -0.80230000       0.85970000
C        0.83370000      -1.95090000      -0.14500000
O        1.63620000      -3.06680000      -0.30010000
C       -0.68070000      -2.22850000      -0.10150000
C       -1.21830000      -0.84600000       0.00390000
N       -1.01780000      -1.46450000      -1.35030000
C        0.41270000      -0.91540000      -1.25490000
H        0.78170000       1.76670000      -0.05440000
H        2.13200000      -0.39820000       0.72390000
H        0.91390000      -0.96340000       1.92160000
H        2.54970000      -2.78020000      -0.40180000
H       -1.19240000      -3.13980000       0.18260000
H       -2.19420000      -0.56340000       0.37910000
H        0.96960000      -0.63080000      -2.14580000
