16
Properties=species:S:1:pos:R:3 gdb_22019=T pbc="F F F"
C        0.03110000       1.42640000       0.20310000
N        0.00620000      -0.00840000      -0.01910000
C       -1.16740000      -0.72090000      -0.06530000
C       -1.19020000      -2.03160000      -0.38440000
C        0.04960000      -2.70340000      -0.69870000
C        1.22030000      -1.82950000      -0.63240000
N        1.19590000      -0.57160000      -0.32210000
N        0.04880000      -3.96310000      -1.00180000
O        1.36350000      -4.41310000      -1.27230000
H        1.00240000       1.69000000       0.62150000
H       -0.11640000       1.98520000      -0.72950000
H       -0.75530000       1.70280000       0.90980000
H       -2.05930000      -0.15760000       0.18070000
H       -2.12080000      -2.58340000      -0.40170000
H        2.19800000      -2.23660000      -0.85340000
H        1.21400000      -5.34160000      -1.47300000
