17
Properties=species:S:1:pos:R:3 gdb_18703=T pbc="F F F"
C        0.21230000       1.52410000      -0.06160000
C       -0.01070000       0.01120000       0.02500000
N        0.34990000      -0.60160000      -1.25350000
C        0.99830000      -1.68400000      -1.28630000
O        1.50520000      -2.43200000      -0.27330000
C        1.40320000      -1.90200000       1.03010000
C        2.17330000      -0.65390000       1.35720000
C        0.66080000      -0.61860000       1.23950000
H        1.27580000       1.75320000      -0.17980000
H       -0.32200000       1.93200000      -0.92340000
H       -0.14580000       2.02090000       0.84610000
H       -1.09110000      -0.15750000       0.13910000
H        1.23450000      -2.16150000      -2.23550000
H        1.33980000      -2.71050000       1.74820000
H        2.62500000      -0.56600000       2.33880000
H        2.75240000      -0.21690000       0.55010000
H        0.10570000      -0.52410000       2.16820000
