18
Properties=species:S:1:pos:R:3 gdb_23123=T pbc="F F F"
C       -0.09690000       1.39050000       0.00590000
O        0.14200000       0.00520000      -0.09470000
C        0.77620000      -0.54960000       1.05200000
C       -0.17540000      -0.82960000       2.19790000
C       -0.28900000      -2.13160000       2.45860000
C        0.57530000      -2.98670000       1.56610000
C        1.28450000      -1.94850000       0.72550000
N        2.21100000      -2.11700000      -0.12640000
O        2.52240000      -3.47660000      -0.27530000
H        0.83320000       1.95000000       0.19370000
H       -0.51510000       1.71290000      -0.95070000
H       -0.81490000       1.64050000       0.80170000
H        1.60630000       0.11130000       1.35100000
H       -0.70300000      -0.03850000       2.71670000
H       -0.92410000      -2.55970000       3.22640000
H        1.29620000      -3.60360000       2.11740000
H       -0.00340000      -3.68670000       0.94860000
H        3.22250000      -3.45440000      -0.93660000
