21
Properties=species:S:1:pos:R:3 gdb_103357=T pbc="F F F"
C        0.08570000       1.53080000       0.17360000
C       -0.10060000       0.03940000      -0.13780000
C        0.66250000      -0.46490000      -1.37470000
C        0.17510000       0.22640000      -2.64370000
C        2.21480000      -0.67180000      -1.11180000
O        1.86200000      -1.83860000      -0.30140000
C        0.86030000      -2.03970000      -1.35020000
C        1.76050000      -2.29130000      -2.56940000
C        2.69180000      -1.34830000      -2.40690000
H        1.14340000       1.78300000       0.30810000
H       -0.31250000       2.17530000      -0.61580000
H       -0.43240000       1.79290000       1.10130000
H        0.21220000      -0.54950000       0.72650000
H       -1.16980000      -0.16120000      -0.29150000
H        0.37840000       1.30130000      -2.60600000
H        0.64830000      -0.17050000      -3.54210000
H       -0.90970000       0.10680000      -2.74630000
H        2.84800000       0.05790000      -0.60710000
H        0.06610000      -2.74110000      -1.09260000
H        1.62650000      -3.03190000      -3.34380000
H        3.55010000      -1.08590000      -3.00740000
