16
Properties=species:S:1:pos:R:3 gdb_14916=T pbc="F F F"
C       -0.00170000      -1.18830000      -0.01620000
C        0.03280000       0.01210000      -0.01200000
C        0.01940000       1.46790000       0.02930000
C       -0.70630000       1.98980000       1.28370000
O       -0.66630000       3.40300000       1.32280000
C        0.67150000       3.87970000       1.30450000
C        1.39580000       3.37040000       0.06470000
O        1.36270000       1.95030000       0.01390000
H       -0.02150000      -2.25010000      -0.03190000
H       -0.51410000       1.85820000      -0.85480000
H       -1.75900000       1.69680000       1.26710000
H       -0.22550000       1.55570000       2.17410000
H        0.61820000       4.97240000       1.30880000
H        1.20690000       3.54640000       2.20820000
H        0.92490000       3.79490000      -0.83700000
H        2.45170000       3.65580000       0.07750000
