16
Properties=species:S:1:pos:R:3 gdb_67404=T pbc="F F F"
C       -0.08300000       1.55220000      -0.08680000
C        0.01870000       0.06620000      -0.00910000
C        0.61920000      -1.00550000      -0.90390000
C        1.35770000      -1.65520000       0.26340000
C        0.27350000      -0.98880000       1.14730000
O       -0.94350000      -1.71280000       0.79970000
C       -0.87490000      -1.05630000      -0.46080000
C       -1.97270000      -1.07340000      -1.36650000
N       -2.85180000      -1.05920000      -2.11900000
H        0.87830000       2.02740000       0.13640000
H       -0.38200000       1.86020000      -1.09390000
H       -0.82640000       1.93750000       0.61840000
H        0.89380000      -0.93510000      -1.94860000
H        1.42460000      -2.74490000       0.31760000
H        2.33860000      -1.19600000       0.40890000
H        0.37960000      -0.81550000       2.21520000
