18
Properties=species:S:1:pos:R:3 gdb_6229=T pbc="F F F"
C       -0.04200000       1.54950000      -0.05220000
C        0.01590000       0.04000000       0.03560000
O       -1.15090000      -0.59950000      -0.40170000
C        1.32400000      -0.68900000      -0.20980000
O        2.44810000       0.08060000      -0.53200000
C        0.70860000      -0.65810000       1.18970000
C        1.37550000       0.12690000       2.29790000
O        0.06670000      -1.82540000       1.62250000
H        0.91330000       2.01420000       0.19320000
H       -0.29120000       1.84620000      -1.07830000
H       -0.81930000       1.94350000       0.60950000
H       -1.23540000      -0.42840000      -1.34670000
H        1.22340000      -1.64050000      -0.73370000
H        3.22160000      -0.33140000      -0.13240000
H        1.94700000       0.97430000       1.91600000
H        0.63410000       0.49240000       3.01480000
H        2.07260000      -0.52190000       2.84450000
H        0.74390000      -2.42280000       1.95950000
