16
Properties=species:S:1:pos:R:3 gdb_65341=T pbc="F F F"
O        0.19760000       1.62770000       0.06190000
C        0.02970000       0.25370000      -0.07950000
C        0.99330000      -0.42850000      -0.98830000
C        1.09980000      -0.67020000       0.51590000
C        2.15470000      -0.07420000       1.27940000
N        2.97640000       0.42850000       1.92110000
C       -1.39870000      -0.20490000       0.00030000
C       -2.19360000      -0.47580000      -1.20290000
O       -1.65420000      -1.54420000      -0.41280000
H        0.23940000       1.84930000       0.99980000
H        0.64380000      -1.27210000      -1.57060000
H        1.74870000       0.19960000      -1.44310000
H        0.76020000      -1.63690000       0.87150000
H       -1.92190000       0.10180000       0.90800000
H       -3.27630000      -0.37570000      -1.16740000
H       -1.73740000      -0.34610000      -2.18220000
