20
Properties=species:S:1:pos:R:3 gdb_40938=T pbc="F F F"
C        0.12920000       1.40770000      -0.55040000
C        1.40890000       1.63840000       0.29840000
C        1.31740000       0.16050000       0.79680000
C       -0.13500000       0.09910000       0.24430000
C        2.26940000      -0.75980000       0.04340000
O        3.62920000      -0.54810000       0.45470000
C        3.80170000      -0.31560000       1.78020000
N        2.93710000      -0.12770000       2.68250000
C        1.52900000      -0.09470000       2.28700000
H       -0.64260000       2.17850000      -0.50010000
H        0.35120000       1.21920000      -1.60400000
H        2.32240000       1.91910000      -0.23180000
H        1.25000000       2.35230000       1.11140000
H       -0.87410000       0.23230000       1.04040000
H       -0.40820000      -0.79340000      -0.32750000
H        2.00930000      -1.81200000       0.22360000
H        2.25580000      -0.58230000      -1.03530000
H        4.86500000      -0.30010000       2.01380000
H        1.03130000       0.68190000       2.88010000
H        1.05960000      -1.04570000       2.57860000
