20
Properties=species:S:1:pos:R:3 gdb_119640=T pbc="F F F"
C        0.02620000       1.52710000      -0.04650000
C        0.02490000       0.00920000      -0.01310000
O        0.69140000      -0.46250000      -1.17890000
C        0.74480000      -1.83340000      -1.28450000
C        1.58210000      -2.72100000      -0.30680000
C        1.71830000      -3.66390000      -1.49860000
C        1.42670000      -2.59690000      -2.48170000
N        0.42820000      -3.68440000      -2.28620000
C       -0.48140000      -2.73010000      -1.56720000
H        1.05080000       1.90930000      -0.06270000
H       -0.48960000       1.89130000      -0.93940000
H       -0.48080000       1.92750000       0.83640000
H        0.53720000      -0.36090000       0.88810000
H       -1.00570000      -0.37760000       0.01330000
H        2.53950000      -2.24820000      -0.07340000
H        1.10250000      -3.08600000       0.60780000
H        2.34600000      -4.53900000      -1.60170000
H        1.84730000      -2.30260000      -3.43350000
H       -1.03900000      -3.15710000      -0.72560000
H       -1.16750000      -2.29290000      -2.29720000
