11
Properties=species:S:1:pos:R:3 gdb_130902=T pbc="F F F"
O       -0.03360000      -0.03550000      -0.00120000
C        0.00660000       1.16770000       0.00720000
C        1.25770000       1.95650000      -0.00090000
N        2.47880000       1.41030000      -0.01840000
N        3.27880000       2.45630000      -0.01950000
N        2.72220000       3.65600000      -0.00450000
C        1.41530000       3.36580000       0.00770000
C        0.41180000       4.37020000       0.02620000
N       -0.43870000       5.15380000       0.04130000
H       -0.91080000       1.79110000       0.02170000
H        4.28340000       2.35040000      -0.03140000
