16
Properties=species:S:1:pos:R:3 gdb_87073=T pbc="F F F"
C       -0.07920000       1.56290000      -0.04220000
C       -0.01670000       0.04170000      -0.01050000
C        1.34060000      -0.64700000      -0.21620000
C        0.70910000      -0.64790000       1.14280000
O        1.19630000       0.18880000       2.14160000
C       -1.16550000      -0.63400000      -0.53040000
C       -2.14490000      -1.19160000      -0.97250000
C       -3.24360000      -1.82830000      -1.46950000
N       -4.17920000      -2.37260000      -1.89350000
H        0.78810000       1.98270000       0.46880000
H       -0.09930000       1.92510000      -1.07380000
H       -0.97870000       1.92140000       0.46560000
H        1.36740000      -1.56970000      -0.78350000
H        2.17820000       0.02410000      -0.37380000
H        0.26870000      -1.58050000       1.49230000
H        2.05210000      -0.14920000       2.42670000
