20
Properties=species:S:1:pos:R:3 gdb_58645=T pbc="F F F"
C        0.60180000       0.14040000       0.90560000
C       -0.40210000      -0.05040000      -0.23600000
O       -1.07670000       1.16190000      -0.52700000
C        0.25610000      -0.61630000      -1.50040000
C       -0.28990000      -0.24920000      -2.81350000
O        0.89730000       0.39150000      -2.30190000
C        1.03080000      -1.89430000      -1.33910000
C        2.07610000      -2.28340000      -2.31290000
N        2.45430000      -1.85410000      -0.95340000
H        1.07370000      -0.80180000       1.19700000
H        1.39250000       0.83710000       0.60430000
H        0.08840000       0.56350000       1.77240000
H       -1.18280000      -0.75370000       0.08040000
H       -0.42350000       1.73270000      -0.95320000
H       -0.11980000      -0.91010000      -3.66040000
H       -1.16450000       0.39240000      -2.86430000
H        0.47170000      -2.68170000      -0.83610000
H        2.24760000      -3.33380000      -2.52880000
H        2.27700000      -1.59930000      -3.13180000
H        2.77370000      -0.88850000      -1.00510000
