16
Properties=species:S:1:pos:R:3 gdb_102005=T pbc="F F F"
C        0.01590000       1.52340000      -0.06670000
C       -0.02260000      -0.00070000       0.04450000
N        0.69200000      -0.51470000       1.22450000
C       -0.02960000      -0.83830000       2.36750000
O        0.43390000      -1.22810000       3.40740000
C        2.07660000      -0.63880000       1.14630000
N        2.68720000      -0.30240000       0.07490000
C        2.80640000      -1.16280000       2.28580000
N        3.58130000      -1.55450000       3.05020000
H        1.04410000       1.87620000      -0.16590000
H       -0.54310000       1.84100000      -0.95190000
H       -0.43730000       1.99510000       0.81050000
H       -1.05390000      -0.35580000       0.12190000
H        0.42750000      -0.45970000      -0.83710000
H       -1.11230000      -0.69300000       2.20270000
H        3.68800000      -0.46540000       0.16430000
