25
Properties=species:S:1:pos:R:3 gdb_59630=T pbc="F F F"
C       -0.00220000       1.57440000       0.02140000
C        0.04480000       0.03970000       0.06410000
C        0.81080000      -0.42630000       1.31050000
C       -1.37500000      -0.56610000      -0.00340000
C       -2.17460000      -0.16670000      -1.27640000
C       -3.03550000      -1.39780000      -1.63960000
C       -2.32830000      -2.53970000      -0.93970000
C       -2.67740000      -3.96780000      -1.21730000
C       -1.43960000      -2.07870000      -0.05700000
H        1.00710000       1.99800000       0.05470000
H       -0.48890000       1.94550000      -0.88520000
H       -0.55520000       1.97000000       0.88240000
H        0.59150000      -0.31120000      -0.82360000
H        0.28260000      -0.13310000       2.22620000
H        0.94140000      -1.51180000       1.33370000
H        1.80760000       0.02600000       1.34720000
H       -1.91090000      -0.21690000       0.89640000
H       -2.76680000       0.74180000      -1.14120000
H       -1.46570000       0.02810000      -2.08990000
H       -4.06580000      -1.30360000      -1.26510000
H       -3.12120000      -1.55060000      -2.72250000
H       -2.51400000      -4.21760000      -2.27370000
H       -2.08460000      -4.65660000      -0.60910000
H       -3.73880000      -4.16360000      -1.01530000
H       -0.85020000      -2.71400000       0.59580000
