16
Properties=species:S:1:pos:R:3 gdb_116640=T pbc="F F F"
C        0.01210000       1.38320000      -0.03070000
O       -0.01500000      -0.03950000       0.04330000
C        0.56730000      -0.68750000      -0.97540000
N        0.59220000      -1.94820000      -0.99970000
C        1.25580000      -2.54940000      -2.16230000
C        2.41070000      -3.34900000      -1.72830000
C        3.37150000      -3.97990000      -1.38310000
C        0.30060000      -3.36870000      -2.92250000
C       -0.48090000      -4.01600000      -3.56330000
H        1.04030000       1.76340000      -0.03900000
H       -0.51920000       1.74730000      -0.91780000
H       -0.49580000       1.74410000       0.86390000
H        1.00000000      -0.03510000      -1.75050000
H        1.63760000      -1.77070000      -2.84980000
H        4.21370000      -4.54720000      -1.07210000
H       -1.17290000      -4.59790000      -4.12040000
