19
Properties=species:S:1:pos:R:3 gdb_84021=T pbc="F F F"
O        0.11630000       1.38400000       0.06190000
C        0.02560000      -0.00560000      -0.01380000
C       -1.31910000      -0.72480000       0.01260000
C       -2.59260000       0.11440000       0.06230000
C       -2.96980000       0.65740000      -1.31870000
O       -1.82390000       1.16070000      -2.00860000
C       -0.96520000       0.10150000      -2.42080000
C       -0.46670000      -0.71910000      -1.24250000
O        0.10510000      -1.94760000      -1.60290000
H       -0.50010000       1.75430000      -0.58710000
H        0.83670000      -0.47530000       0.53370000
H       -1.33140000      -1.66700000       0.55010000
H       -3.42340000      -0.48160000       0.45160000
H       -2.44630000       0.95250000       0.75450000
H       -3.43690000      -0.12930000      -1.93040000
H       -3.67020000       1.49340000      -1.24330000
H       -1.48930000      -0.56730000      -3.12070000
H       -0.13410000       0.57600000      -2.95550000
H        1.00530000      -1.78010000      -1.90470000
