16
Properties=species:S:1:pos:R:3 gdb_33960=T pbc="F F F"
N        0.02460000      -1.12200000      -0.09820000
C        0.03500000       0.03090000      -0.00200000
C        0.03340000       1.46170000       0.10510000
N        0.31580000       2.28240000      -1.10240000
C        1.29170000       2.27270000      -0.00860000
C        1.15490000       3.43690000       0.96680000
N       -0.15510000       3.33290000       1.64860000
C       -1.35460000       3.49950000       0.81330000
C       -0.85430000       2.13880000       1.13340000
H        0.62790000       1.67890000      -1.86090000
H        2.25650000       1.79870000      -0.16220000
H        1.93730000       3.36170000       1.72900000
H        1.25690000       4.40550000       0.46790000
H       -2.21460000       3.89250000       1.34830000
H       -1.24070000       3.83730000      -0.21110000
H       -1.34760000       1.49140000       1.85120000
