14
Properties=species:S:1:pos:R:3 gdb_1960=T pbc="F F F"
O        0.29020000       1.29810000      -0.41160000
C        0.01370000      -0.00710000       0.02040000
C        0.10860000      -0.28190000       1.56040000
N       -1.31410000      -0.62240000       1.52660000
C       -1.51060000      -0.27170000       0.12100000
C       -2.20680000      -1.01210000       2.46090000
O       -3.38900000      -1.19270000       2.24970000
H        1.24330000       1.40030000      -0.49810000
H        0.54640000      -0.75670000      -0.57600000
H        0.76920000      -1.09850000       1.87150000
H        0.34020000       0.62340000       2.13390000
H       -2.10660000       0.63470000      -0.02760000
H       -1.91490000      -1.08010000      -0.49420000
H       -1.72970000      -1.16020000       3.45220000
