20
Properties=species:S:1:pos:R:3 gdb_16666=T pbc="F F F"
C        0.11550000       1.57970000      -0.11780000
C        0.07480000       0.05610000      -0.00610000
C        0.64510000      -0.67920000      -1.25400000
C        1.21550000      -1.98050000      -0.71860000
O        2.47630000      -1.80020000      -0.06030000
C        1.29660000      -1.91580000       0.74780000
C        0.77640000      -0.57150000       1.25330000
C        1.89610000       0.26300000       1.88940000
H        1.14060000       1.95070000      -0.21710000
H       -0.44240000       1.91390000      -0.99930000
H       -0.33340000       2.06190000       0.75720000
H       -0.97940000      -0.23990000       0.06690000
H       -0.13310000      -0.85290000      -2.00410000
H        1.44210000      -0.10310000      -1.73830000
H        1.11230000      -2.91290000      -1.26900000
H        1.26450000      -2.79680000       1.38600000
H        0.01490000      -0.75860000       2.02010000
H        2.70680000       0.43660000       1.17800000
H        1.52460000       1.22950000       2.24090000
H        2.31980000      -0.26310000       2.75150000
