18
Properties=species:S:1:pos:R:3 gdb_55317=T pbc="F F F"
C        0.10310000       1.16220000       0.71300000
C        0.02450000       0.01320000      -0.26950000
O        0.92460000      -0.25270000      -1.03270000
C       -1.26180000      -0.81390000      -0.24550000
C       -1.36550000      -1.83970000      -1.40380000
C       -0.83730000      -2.94950000      -0.45970000
C       -1.19670000      -2.03980000       0.75460000
C       -0.29800000      -1.99090000       1.89510000
N        0.42250000      -1.93980000       2.79880000
H       -0.02520000       0.79380000       1.73670000
H        1.06800000       1.66170000       0.62270000
H       -0.70510000       1.87770000       0.52230000
H       -2.11840000      -0.15840000      -0.07070000
H       -2.40040000      -2.00420000      -1.71210000
H       -0.74840000      -1.61320000      -2.27240000
H       -1.32070000      -3.92700000      -0.48360000
H        0.24230000      -3.07430000      -0.55240000
H       -2.20440000      -2.25930000       1.11770000
