19
Properties=species:S:1:pos:R:3 gdb_53337=T pbc="F F F"
C       -0.47350000       1.14420000       0.46860000
C       -0.17450000      -0.26320000       0.24630000
C        0.06720000      -1.42800000       0.05670000
C        0.39050000      -2.83420000      -0.19620000
C        0.99470000      -3.56070000       1.04750000
C       -0.16440000      -4.37900000       1.58880000
C       -1.48330000      -3.65920000       1.82420000
C       -1.20960000      -4.35070000       0.51430000
O       -0.77150000      -3.58880000      -0.58190000
H        0.17590000       1.78830000      -0.13450000
H       -1.50990000       1.37330000       0.19730000
H       -0.33590000       1.42310000       1.51910000
H        1.07990000      -2.88170000      -1.04680000
H        1.80100000      -4.23020000       0.73200000
H        1.40740000      -2.84150000       1.75850000
H        0.05720000      -5.27860000       2.15070000
H       -2.18810000      -4.13760000       2.49650000
H       -1.49540000      -2.57550000       1.84710000
H       -1.78690000      -5.21150000       0.19820000
