18
Properties=species:S:1:pos:R:3 gdb_42342=T pbc="F F F"
O        0.10360000       0.16330000       0.85830000
C       -0.07040000       1.28960000       0.43630000
C        1.09190000       2.18590000       0.14450000
C        2.13630000       2.28480000       1.21840000
N        2.41110000       1.55720000      -0.01030000
C       -1.44320000       1.85240000       0.14500000
C       -1.91160000       1.69240000      -1.33480000
O       -3.00570000       0.85400000      -0.93980000
C       -2.64850000       0.94870000       0.45770000
H        0.90380000       3.04970000      -0.48710000
H        2.67020000       3.22280000       1.33950000
H        1.95480000       1.72110000       2.12930000
H        2.27940000       0.56050000       0.16870000
H       -1.51060000       2.87970000       0.51110000
H       -2.24530000       2.61890000      -1.81750000
H       -1.20840000       1.17470000      -1.99940000
H       -2.37710000      -0.02250000       0.88220000
H       -3.44390000       1.41180000       1.05230000
