16
Properties=species:S:1:pos:R:3 gdb_19726=T pbc="F F F"
C       -0.01020000       1.54060000      -0.00780000
O        1.37550000       1.94440000       0.01410000
C        2.14590000       0.72310000       0.02700000
C        1.30910000      -0.22230000      -0.84300000
C        0.04250000      -0.00680000       0.01420000
C        0.55910000      -0.33180000       1.42240000
O        1.65190000      -1.25370000       1.49690000
C        1.94670000       0.14960000       1.43740000
H       -0.52980000       1.96370000       0.86040000
H       -0.48600000       1.92260000      -0.91940000
H        3.16270000       0.95660000      -0.28570000
H        1.20410000       0.15430000      -1.86200000
H        1.66190000      -1.25130000      -0.84530000
H       -0.87480000      -0.50200000      -0.30360000
H       -0.09790000      -0.29840000       2.28640000
H        2.43200000       0.58490000       2.30450000
