21
Properties=species:S:1:pos:R:3 gdb_122686=T pbc="F F F"
O       -0.04550000       1.42370000       0.09020000
C        0.01320000       0.00600000       0.12360000
C       -1.40820000      -0.52550000       0.00070000
C       -1.47180000      -2.05490000       0.00190000
C       -2.89630000      -2.59350000      -0.08270000
C       -2.99880000      -4.13230000      -0.07390000
O       -4.16320000      -4.38840000       0.69470000
C       -4.16080000      -3.38190000       1.67310000
O       -3.66790000      -2.20600000       1.06340000
H        0.84870000       1.76450000       0.18380000
H        0.63160000      -0.38660000      -0.70140000
H        0.46410000      -0.35290000       1.06390000
H       -2.00820000      -0.13370000       0.82810000
H       -1.84760000      -0.13050000      -0.92370000
H       -0.90060000      -2.45650000      -0.84750000
H       -1.00410000      -2.45200000       0.91260000
H       -3.39450000      -2.18200000      -0.97170000
H       -3.13420000      -4.56990000      -1.06480000
H       -2.10870000      -4.57970000       0.39780000
H       -5.18690000      -3.21940000       2.01790000
H       -3.51660000      -3.66540000       2.52610000
