14
Properties=species:S:1:pos:R:3 gdb_49840=T pbc="F F F"
O       -0.02590000       0.03870000       0.12770000
C        0.04970000       1.24000000       0.26440000
N        1.21390000       1.93580000       0.17250000
C        2.49300000       1.45550000      -0.36010000
C        2.87400000       2.92930000      -0.57310000
O        3.82030000       3.51320000      -0.98560000
C        1.47190000       3.38300000      -0.00770000
C        0.60710000       4.10490000      -0.91750000
C       -0.09600000       4.70190000      -1.68780000
H       -0.81280000       1.89330000       0.49430000
H        3.12050000       0.91260000       0.35480000
H        2.40330000       0.86370000      -1.27870000
H        1.57800000       3.92090000       0.94380000
H       -0.71970000       5.23000000      -2.36690000
