17
Properties=species:S:1:pos:R:3 gdb_109119=T pbc="F F F"
C        0.13280000       1.39810000       0.09960000
N        0.00400000      -0.03940000      -0.06410000
C        0.55510000      -0.66970000      -1.12970000
N        1.04780000      -0.07660000      -2.16390000
C        1.57150000      -1.08250000      -3.09150000
C        1.58420000      -2.38360000      -2.29110000
O        2.31010000      -3.34050000      -2.36920000
C        0.55690000      -2.18500000      -1.17400000
O        0.88580000      -2.83140000       0.02750000
H        1.17360000       1.71030000       0.25630000
H       -0.23230000       1.89860000      -0.79980000
H       -0.46990000       1.71410000       0.95350000
H       -0.06890000      -0.60330000       0.76850000
H        0.93920000      -1.19040000      -3.98600000
H        2.57660000      -0.82610000      -3.44400000
H       -0.42530000      -2.53040000      -1.54600000
H        1.55010000      -3.49870000      -0.20130000
