21
Properties=species:S:1:pos:R:3 gdb_88446=T pbc="F F F"
C       -1.83610000       0.21220000       1.78060000
C       -0.87270000      -0.69150000       1.05570000
O       -0.02530000      -0.09410000       0.06940000
C        0.59160000      -0.65910000       1.23500000
C        1.31800000       0.29750000       2.15660000
C        1.58600000       1.67930000       1.58890000
C        1.08270000       0.16570000       3.65690000
C        2.37700000      -0.30400000       3.04580000
O        2.61600000      -1.67530000       2.91010000
H       -1.34300000       1.11020000       2.15670000
H       -2.64660000       0.51770000       1.11040000
H       -2.28650000      -0.31540000       2.62860000
H       -1.30300000      -1.64240000       0.73240000
H        1.13200000      -1.58350000       1.03790000
H        0.65570000       2.20660000       1.36210000
H        2.15730000       2.28430000       2.29990000
H        2.15720000       1.61460000       0.65750000
H        1.08200000       1.06500000       4.26470000
H        0.39430000      -0.60760000       3.98280000
H        3.27140000       0.29470000       3.22040000
H        2.74250000      -2.04680000       3.78900000
