15
Properties=species:S:1:pos:R:3 gdb_131170=T pbc="F F F"
O       -0.27820000       1.41190000       0.37630000
C       -0.07130000       0.08860000       0.12710000
C        0.13780000      -0.57430000      -1.07150000
N        0.30370000      -1.88560000      -0.72950000
N        0.19240000      -2.11380000       0.58480000
C       -0.02300000      -0.91300000       1.11950000
C        0.21500000      -0.12190000      -2.46990000
C        1.37190000      -0.41150000      -3.34150000
O        0.15990000      -1.16150000      -3.45530000
H       -0.22670000       1.90930000      -0.44500000
H        0.36680000      -2.65270000      -1.37820000
H       -0.13880000      -0.79450000       2.18590000
H       -0.38400000       0.75770000      -2.71320000
H        1.59310000       0.24420000      -4.18240000
H        2.22020000      -0.95290000      -2.92700000
