16
Properties=species:S:1:pos:R:3 gdb_102901=T pbc="F F F"
N       -0.12460000       1.50640000      -0.74210000
C       -0.18420000       0.15570000      -0.20180000
C       -1.64040000      -0.31860000      -0.22140000
O       -2.02090000      -0.42940000      -1.58980000
C       -3.39250000      -0.67800000      -1.81760000
C       -4.24950000       0.46270000      -1.44700000
N       -4.91460000       1.35820000      -1.14700000
C       -1.80020000      -1.61550000       0.46630000
N       -1.93990000      -2.63510000       0.99160000
H        0.81450000       1.87800000      -0.65140000
H       -0.34510000       1.48790000      -1.73240000
H        0.42120000      -0.59610000      -0.73360000
H        0.15080000       0.17090000       0.84010000
H       -2.26130000       0.43230000       0.28630000
H       -3.49570000      -0.87020000      -2.88880000
H       -3.73700000      -1.57100000      -1.27750000
