19
Properties=species:S:1:pos:R:3 gdb_71790=T pbc="F F F"
O       -0.03580000       1.41280000       0.00780000
C       -0.01310000       0.01880000      -0.02800000
C        0.45930000      -0.74310000      -1.28790000
C       -0.54540000      -1.84820000      -0.88010000
C       -0.13680000      -2.58920000       0.45500000
C        1.17730000      -2.03650000       1.05290000
C        0.41480000      -0.71870000       1.31120000
C       -0.94110000      -1.51380000       1.27370000
C       -1.34930000      -0.79360000      -0.03620000
H        0.86240000       1.72560000       0.16640000
H        0.10110000      -0.21810000      -2.17910000
H        1.51780000      -0.99260000      -1.41380000
H       -0.99740000      -2.46700000      -1.65390000
H       -0.34190000      -3.65940000       0.48910000
H        1.40160000      -2.53740000       2.00040000
H        2.08420000      -2.02320000       0.43970000
H        0.70640000      -0.04770000       2.12090000
H       -1.56120000      -1.72400000       2.14350000
H       -2.31600000      -0.37500000      -0.30920000
