18
Properties=species:S:1:pos:R:3 gdb_32110=T pbc="F F F"
C        0.05960000       1.45720000      -0.10250000
N       -0.11970000       0.03550000       0.09940000
C        0.55480000      -0.65700000       1.09300000
C        1.18990000       0.00310000       2.15950000
C        1.81540000      -0.74080000       3.15420000
C        1.83760000      -2.13030000       3.12100000
C        1.21080000      -2.78390000       2.05550000
O        1.19090000      -4.14500000       1.94710000
C        0.57780000      -2.05980000       1.05380000
H        1.11250000       1.75130000      -0.23660000
H       -0.49820000       1.75850000      -0.99210000
H       -0.34200000       2.02490000       0.74450000
H       -0.28160000      -0.49580000      -0.74070000
H        1.19360000       1.08380000       2.21330000
H        2.30190000      -0.22190000       3.97420000
H        2.33220000      -2.70060000       3.90170000
H        1.65980000      -4.52030000       2.69920000
H        0.09640000      -2.59890000       0.24430000
