15
Properties=species:S:1:pos:R:3 gdb_55256=T pbc="F F F"
O       -1.39500000       0.35380000      -0.75550000
C       -0.47920000       1.19140000      -0.20540000
O        0.69890000       0.99300000      -0.15000000
C       -1.30590000       2.40890000       0.23220000
C       -1.70940000       3.16170000      -1.06120000
N       -2.65860000       2.18320000      -1.65930000
C       -2.69930000       1.11890000      -0.67190000
N       -3.79810000       0.27090000      -0.75120000
H       -4.20880000       0.25410000      -1.67320000
H       -3.59470000      -0.66030000      -0.41340000
O       -2.55190000       1.77530000       0.55670000
H       -0.90480000       2.98890000       1.05770000
H       -2.22680000       4.09240000      -0.81380000
H       -0.86290000       3.38220000      -1.71590000
H       -2.30450000       1.81990000      -2.53790000
