15
Properties=species:S:1:pos:R:3 gdb_1602=T pbc="F F F"
C       -0.15860000       1.42160000       0.16550000
C        0.05680000      -0.09100000      -0.04790000
C        0.81350000      -0.39130000      -1.34250000
C        0.77390000      -0.68810000       1.15970000
O        1.88860000      -1.16090000       1.11040000
C        0.02860000      -0.65920000       2.41240000
C       -0.59710000      -0.64870000       3.44110000
H        0.80160000       1.94640000       0.20870000
H       -0.73400000       1.83790000      -0.66630000
H       -0.70210000       1.62400000       1.09210000
H       -0.93530000      -0.56360000      -0.07830000
H        1.80930000       0.05980000      -1.32330000
H        0.94440000      -1.46670000      -1.48720000
H        0.26740000       0.01130000      -2.20070000
H       -1.13510000      -0.64640000       4.35800000
