18
Properties=species:S:1:pos:R:3 gdb_35850=T pbc="F F F"
N       -0.26430000      -1.01380000      -0.56360000
C       -0.12640000       0.09950000      -0.28970000
C        0.00400000       1.52460000       0.06600000
C       -0.81410000       1.84680000       1.32740000
C       -1.07010000       3.34340000       1.53480000
C        0.10730000       4.28590000       1.51850000
C        1.27140000       4.19520000       0.87490000
C        1.79880000       3.10360000      -0.01980000
O        1.37990000       1.78070000       0.26120000
H       -0.37880000       2.10660000      -0.78950000
H       -1.77750000       1.32850000       1.27380000
H       -0.26340000       1.42640000       2.17490000
H       -1.78540000       3.68910000       0.77140000
H       -1.59880000       3.46350000       2.48740000
H       -0.06340000       5.20290000       2.07990000
H        1.95240000       5.04140000       0.95410000
H        1.57030000       3.35310000      -1.07250000
H        2.88980000       3.06830000       0.06030000
