17
Properties=species:S:1:pos:R:3 gdb_67906=T pbc="F F F"
C       -0.14310000       1.45260000      -0.01400000
C        0.02820000      -0.03570000       0.05610000
O       -1.25130000      -0.77040000       0.00590000
C       -0.91050000      -1.50900000       1.13380000
N       -1.56410000      -2.37170000       1.76670000
C        0.45550000      -0.87000000       1.27010000
N        1.62860000      -1.48140000       0.50250000
C        1.10810000      -2.17850000      -0.68790000
C        1.16530000      -0.70750000      -0.73340000
H        0.81860000       1.95210000       0.13840000
H       -0.52760000       1.74620000      -0.99670000
H       -0.84480000       1.79950000       0.74890000
H       -2.48480000      -2.52270000       1.34910000
H        0.76710000      -0.47830000       2.23520000
H        1.89300000      -2.71110000      -1.21620000
H        0.15590000      -2.69690000      -0.65050000
H        1.87260000      -0.16100000      -1.34950000
