18
Properties=species:S:1:pos:R:3 gdb_47547=T pbc="F F F"
O        0.00820000      -0.03770000       0.53250000
C       -0.06070000       1.06310000       0.05720000
C       -1.38520000       1.82010000      -0.04080000
C       -1.73710000       2.36130000      -1.41240000
C       -2.27490000       3.74450000      -1.56040000
N       -0.92580000       3.41940000      -2.01150000
C        0.20740000       3.87880000      -1.21580000
C        1.28120000       2.80100000      -1.17850000
O        1.09460000       1.68470000      -0.29080000
H       -2.15190000       1.11760000       0.29140000
H       -1.35230000       2.62950000       0.69590000
H       -2.05420000       1.60240000      -2.12510000
H       -2.98850000       3.98460000      -2.34350000
H       -2.38450000       4.33150000      -0.64920000
H        0.63730000       4.75560000      -1.71490000
H       -0.05320000       4.19480000      -0.19370000
H        1.41630000       2.40650000      -2.19230000
H        2.22840000       3.23760000      -0.85140000
