14
Properties=species:S:1:pos:R:3 gdb_56419=T pbc="F F F"
O        1.11310000       1.51110000      -0.10330000
C        0.30140000       0.34870000       0.00730000
C        0.38580000      -0.50660000      -1.18530000
C        0.47970000      -1.18720000      -2.17020000
C        0.60090000      -0.42330000       1.22460000
C        0.87240000      -1.03230000       2.22440000
C        1.18970000      -1.77270000       3.44290000
C        2.50650000      -2.42210000       3.39520000
N        3.54040000      -2.93500000       3.37080000
H        2.02500000       1.21700000      -0.21520000
H       -0.72190000       0.73770000       0.08750000
H        0.55720000      -1.79160000      -3.04050000
H        1.16610000      -1.10610000       4.31450000
H        0.43140000      -2.54470000       3.62630000
