17
Properties=species:S:1:pos:R:3 gdb_17722=T pbc="F F F"
C       -0.09670000       1.55140000       0.00570000
C        1.42370000       1.25030000      -0.00620000
C        1.33120000       0.16270000       1.08760000
C        1.82960000      -0.95860000       0.17710000
C        0.82030000      -2.12720000       0.26840000
C       -0.55150000      -1.35020000       0.27390000
C        0.04890000       0.03450000       0.19860000
N        1.19300000      -0.02370000      -0.85110000
H       -0.48400000       2.12300000       0.85270000
H       -0.53030000       1.88160000      -0.94200000
H        2.24370000       1.93490000      -0.22740000
H        1.37580000       0.27710000       2.17670000
H        2.88350000      -1.21540000       0.04710000
H        0.90680000      -2.79210000      -0.59520000
H        0.96460000      -2.72520000       1.17300000
H       -1.17120000      -1.59300000      -0.59250000
H       -1.13410000      -1.52010000       1.18290000
