18
Properties=species:S:1:pos:R:3 gdb_11479=T pbc="F F F"
O        0.39300000       0.79840000       0.64080000
C        0.01060000      -0.47840000       0.16900000
C       -1.47700000      -0.51100000      -0.17670000
C       -2.02140000      -1.91160000      -0.51490000
C       -2.64550000      -2.38300000       0.80340000
O       -1.61170000      -2.98340000       1.57360000
C       -3.13420000      -1.05730000       1.39390000
O       -2.19660000      -0.06940000       0.99440000
H       -0.24420000       1.01730000       1.33170000
H        0.60620000      -0.68150000      -0.72830000
H        0.21610000      -1.26820000       0.90640000
H       -1.67280000       0.21090000      -0.97950000
H       -2.78820000      -1.85710000      -1.29210000
H       -1.24370000      -2.60330000      -0.84660000
H       -3.47390000      -3.08760000       0.64660000
H       -1.94410000      -3.13420000       2.46420000
H       -4.13970000      -0.81890000       1.01080000
H       -3.18450000      -1.07310000       2.48930000
