16
Properties=species:S:1:pos:R:3 gdb_34127=T pbc="F F F"
N       -0.01560000      -1.12900000       0.04280000
C       -0.02900000       0.02760000       0.05210000
C       -0.02040000       1.46910000       0.02900000
C       -0.85510000       2.22310000      -1.03640000
C       -0.07460000       3.54370000      -0.85920000
N        1.31260000       3.20650000      -1.27450000
C        1.35320000       2.36650000      -0.09670000
C        0.41960000       3.32260000       0.66180000
N       -0.28140000       2.20610000       1.29410000
H       -0.76700000       1.82280000      -2.05010000
H       -1.91190000       2.26280000      -0.75750000
H       -0.50510000       4.47210000      -1.23000000
H        1.39830000       2.73580000      -2.17450000
H        2.27890000       1.92900000       0.26860000
H        0.73720000       4.17790000       1.25220000
H       -1.27260000       2.35100000       1.48640000
