11
Properties=species:S:1:pos:R:3 gdb_632=T pbc="F F F"
N        0.17500000       1.10120000      -0.51330000
C       -0.17670000       0.10910000       0.34940000
O        0.18640000       0.02660000       1.50560000
C       -1.12640000      -0.90510000      -0.24500000
C       -2.43160000      -0.48480000      -0.78360000
O       -1.36010000      -0.84270000      -1.65620000
H        0.86980000       1.76620000      -0.21700000
H       -0.01570000       0.98170000      -1.49520000
H       -1.02640000      -1.90150000       0.17830000
H       -3.26630000      -1.18240000      -0.75880000
H       -2.69400000       0.57110000      -0.77380000
