12
Properties=species:S:1:pos:R:3 gdb_123399=T pbc="F F F"
C        0.08990000      -1.17270000      -0.00640000
C        0.06180000       0.02670000       0.00170000
C       -0.01560000       1.47400000       0.01190000
O        1.33000000       2.01240000      -0.00020000
C        1.39960000       3.32850000       0.00720000
N        0.40600000       4.17520000       0.02420000
O        1.02970000       5.39050000       0.02460000
N        2.40100000       5.19500000       0.00730000
N        2.62960000       3.95920000      -0.00310000
H        0.11950000      -2.23480000      -0.01360000
H       -0.55490000       1.85340000      -0.86410000
H       -0.53440000       1.84190000       0.90500000
