12
Properties=species:S:1:pos:R:3 gdb_21939=T pbc="F F F"
O        0.03190000       1.40920000      -0.11140000
C        0.00320000       0.01210000       0.00450000
C       -1.42180000      -0.44930000       0.02050000
N       -2.45610000       0.31930000       0.08150000
O       -3.57070000      -0.56270000       0.08330000
C       -3.15380000      -1.86450000       0.02300000
O       -3.85800000      -2.83190000       0.00840000
N       -1.76710000      -1.77540000      -0.01530000
H        0.93780000       1.70370000       0.01950000
H        0.51480000      -0.49160000      -0.83460000
H        0.48520000      -0.34510000       0.93040000
H       -1.16410000      -2.57730000      -0.07820000
