18
Properties=species:S:1:pos:R:3 gdb_26208=T pbc="F F F"
C       -0.02650000       1.40270000       0.03900000
N       -0.03080000      -0.03550000      -0.16150000
C        1.19130000      -0.75140000       0.15710000
C       -1.23150000      -0.67630000      -0.07700000
N       -2.41670000      -0.12820000      -0.04350000
C       -3.28570000      -1.21280000      -0.03430000
N       -4.65700000      -0.98210000      -0.07350000
C       -2.58130000      -2.37030000      -0.04470000
O       -1.22490000      -2.02040000      -0.06940000
H        0.83860000       1.83240000      -0.47500000
H       -0.94160000       1.82420000      -0.37600000
H        0.02980000       1.67590000       1.10390000
H        1.40230000      -0.76540000       1.23810000
H        1.12230000      -1.78000000      -0.19550000
H        2.02990000      -0.26300000      -0.34800000
H       -4.88700000      -0.07720000       0.31500000
H       -5.20850000      -1.71100000       0.35730000
H       -2.80490000      -3.42030000      -0.03680000
