19
Properties=species:S:1:pos:R:3 gdb_100621=T pbc="F F F"
C        0.01570000       1.55610000       0.10600000
C       -0.02630000       0.03470000      -0.02540000
N       -1.39450000      -0.49230000      -0.09670000
C       -2.11050000      -0.10070000      -1.30920000
C       -1.43620000      -1.93130000       0.15080000
C       -2.79780000      -2.42430000       0.38010000
C       -3.90280000      -2.84340000       0.58780000
C       -0.78090000      -2.73240000      -0.92830000
N       -0.23480000      -3.28330000      -1.78500000
H        1.04450000       1.87980000       0.28920000
H       -0.32720000       2.06050000      -0.80140000
H       -0.60720000       1.88790000       0.94160000
H        0.57560000      -0.28350000      -0.89550000
H        0.44460000      -0.40730000       0.86060000
H       -1.60400000      -0.43000000      -2.23230000
H       -3.11440000      -0.53040000      -1.29060000
H       -2.21150000       0.98540000      -1.33770000
H       -0.85290000      -2.11610000       1.06280000
H       -4.88270000      -3.21220000       0.76870000
