18
Properties=species:S:1:pos:R:3 gdb_53752=T pbc="F F F"
C       -0.05670000       1.16560000      -0.01570000
C       -0.35960000      -0.19900000       0.56910000
O        0.33480000      -0.72670000       1.41180000
C       -1.55050000      -0.84870000       0.05320000
C       -2.54400000      -1.38330000      -0.38150000
C       -3.73520000      -2.08360000      -0.86840000
N       -4.02220000      -3.40440000      -0.30350000
C       -2.90590000      -4.28450000       0.02920000
C       -3.71880000      -3.64840000       1.10360000
H        0.85320000       1.56230000       0.43680000
H        0.06500000       1.09100000      -1.10170000
H       -0.89480000       1.84710000       0.16570000
H       -4.61290000      -1.44910000      -0.69050000
H       -3.65480000      -2.19890000      -1.95690000
H       -3.04900000      -5.32880000      -0.23190000
H       -1.89440000      -3.90640000      -0.10080000
H       -3.23570000      -2.85680000       1.67200000
H       -4.46880000      -4.21780000       1.64450000
