20
Properties=species:S:1:pos:R:3 gdb_105488=T pbc="F F F"
C        0.14830000       1.57500000       0.16050000
C        0.06550000       0.06130000       0.39080000
C       -1.25520000      -0.55720000      -0.04950000
C       -1.65780000      -0.44880000      -1.55720000
N       -2.19720000      -1.82980000      -1.46260000
H       -3.51850000      -1.19630000      -0.29420000
H       -2.09250000      -2.42400000      -2.27790000
C       -1.30250000      -2.10100000      -0.30790000
C       -2.42540000      -0.15400000       0.86540000
O       -3.63050000      -0.63180000       0.50570000
O       -2.29350000       0.52870000       1.84780000
H        1.12790000       1.95550000       0.46440000
H        0.01250000       1.82730000      -0.89760000
H       -0.61530000       2.09560000       0.74130000
H        0.87600000      -0.43750000      -0.15550000
H        0.21430000      -0.15340000       1.45400000
H       -2.38870000       0.30930000      -1.85170000
H       -0.76620000      -0.36360000      -2.19250000
H       -0.31170000      -2.47850000      -0.59270000
H       -1.73230000      -2.74710000       0.46290000
