23
Properties=species:S:1:pos:R:3 gdb_78028=T pbc="F F F"
C       -0.24640000       1.51460000      -0.12170000
C        0.06160000       0.03340000      -0.02300000
C        1.38200000      -0.64760000      -0.32850000
C        2.66880000       0.14930000      -0.35040000
O        2.69580000       1.01350000      -1.48430000
C        2.73210000       0.90280000       1.00640000
C        1.74880000       0.18210000       1.95790000
C        0.82080000      -0.66730000       1.08300000
C        0.23850000      -1.91160000       1.71390000
H       -0.27570000       1.83350000      -1.16820000
H       -1.22740000       1.72170000       0.32100000
H        0.47870000       2.14880000       0.38890000
H       -0.77380000      -0.56680000      -0.38140000
H        1.34590000      -1.53410000      -0.95400000
H        3.50700000      -0.56260000      -0.41670000
H        3.55460000       1.44790000      -1.50450000
H        3.74860000       0.92230000       1.41180000
H        2.44290000       1.94210000       0.83270000
H        2.29330000      -0.48780000       2.63360000
H        1.20090000       0.88560000       2.59610000
H       -0.42220000      -1.66000000       2.55260000
H       -0.35120000      -2.48610000       0.99250000
H        1.02630000      -2.56900000       2.10200000
