13
Properties=species:S:1:pos:R:3 gdb_14810=T pbc="F F F"
C       -0.16480000      -1.22010000      -0.16410000
C       -0.09870000      -0.02800000      -0.03310000
C       -0.01530000       1.41210000       0.11350000
O       -0.08010000       1.86670000       1.48610000
C        1.27980000       2.33480000       1.47160000
C        1.40340000       2.07180000      -0.05200000
C        2.50820000       1.25670000      -0.51650000
N        3.40000000       0.61750000      -0.87910000
H       -0.21740000      -2.27510000      -0.27950000
H       -0.78580000       1.90140000      -0.49310000
H        1.36180000       3.38190000       1.77720000
H        1.93940000       1.71430000       2.08760000
H        1.34890000       2.98590000      -0.64590000
