15
Properties=species:S:1:pos:R:3 gdb_11852=T pbc="F F F"
O        0.17810000       0.07420000       0.75320000
C        0.13580000       1.24680000       0.44340000
N        1.12470000       1.89940000      -0.20820000
C        2.49060000       1.44670000      -0.49730000
C        2.84330000       2.92380000      -0.73870000
C        4.08540000       3.65800000      -0.52270000
O        3.57870000       3.38720000      -1.84280000
C        1.38280000       3.32470000      -0.45870000
H       -0.72880000       1.90870000       0.65550000
H        2.97990000       0.95370000       0.34870000
H        2.57190000       0.81220000      -1.38610000
H        4.05240000       4.70270000      -0.21720000
H        4.99240000       3.11930000      -0.25290000
H        0.86220000       3.73190000      -1.33270000
H        1.22000000       3.97860000       0.40520000
