18
Properties=species:S:1:pos:R:3 gdb_81151=T pbc="F F F"
N        0.24770000       1.50900000      -0.06450000
C        0.03120000       0.09660000       0.01940000
C        0.06660000      -0.63730000       1.38480000
C       -1.02010000       0.07120000       2.21150000
C       -2.15370000       0.09170000       1.13540000
C       -1.38610000      -0.62900000       0.00520000
N       -0.75460000      -1.75910000       0.78560000
C       -2.07850000      -0.92760000      -1.22540000
N       -2.60040000      -1.13700000      -2.23640000
H        0.21160000       1.83900000      -1.02240000
H       -0.42190000       2.04400000       0.47580000
H        0.68510000      -0.40790000      -0.69730000
H        1.00070000      -0.90050000       1.87890000
H       -1.29500000      -0.51660000       3.08810000
H       -0.71410000       1.06710000       2.54190000
H       -3.03530000      -0.47590000       1.43360000
H       -2.46780000       1.09620000       0.84050000
H       -0.15410000      -2.27790000       0.14200000
