17
Properties=species:S:1:pos:R:3 gdb_11703=T pbc="F F F"
C       -0.26780000       1.51600000       0.05580000
C        0.10370000       0.04530000      -0.00790000
C        1.21590000      -0.45030000      -0.97320000
C        1.91440000      -1.03230000       0.26270000
C        2.14830000       0.04200000       1.25740000
N        0.79920000      -0.53650000       1.20640000
C        2.50150000      -2.32810000       0.33890000
C        3.00910000      -3.41890000       0.36300000
H        0.60580000       2.16750000       0.15210000
H       -0.79850000       1.80920000      -0.85630000
H       -0.92900000       1.70470000       0.90780000
H       -0.80490000      -0.54690000      -0.14490000
H        0.87100000      -1.21010000      -1.67490000
H        1.78900000       0.30550000      -1.51890000
H        2.68100000      -0.23140000       2.16230000
H        2.33030000       1.05710000       0.91210000
H        3.45400000      -4.38240000       0.39650000
