10
Properties=species:S:1:pos:R:3 gdb_21506=T pbc="F F F"
N       -0.05790000       1.32530000       0.00760000
C        0.05490000      -0.02660000       0.00130000
O        1.09510000      -0.64500000      -0.01010000
C       -1.26900000      -0.73500000       0.00950000
N       -2.43540000      -0.15370000       0.02130000
O       -3.32850000      -1.15330000       0.02450000
N       -2.62240000      -2.37840000       0.01520000
N       -1.40060000      -2.11180000       0.00500000
H        0.78630000       1.87340000       0.00230000
H       -0.95290000       1.78500000       0.01660000
