18
Properties=species:S:1:pos:R:3 gdb_62659=T pbc="F F F"
C       -0.12370000       1.60490000      -0.04930000
C       -0.02650000       0.08960000      -0.00600000
O       -1.29490000      -0.52250000      -0.18590000
C        1.17150000      -0.61220000      -0.69050000
C        2.12530000      -0.32670000       0.52590000
N        2.54720000      -1.75300000       0.71810000
C        1.11370000      -1.83560000       0.28390000
C        0.72810000      -0.57770000       1.15720000
O        0.45260000      -0.50550000       2.49960000
H        0.84790000       2.07800000       0.11850000
H       -0.49240000       1.94570000      -1.02520000
H       -0.81780000       1.96260000       0.71750000
H       -1.71130000      -0.13990000      -0.96490000
H        1.45890000      -0.63750000      -1.74090000
H        2.79000000       0.52280000       0.68320000
H        3.15810000      -2.03780000      -0.05300000
H        0.57100000      -2.77130000       0.16260000
H       -0.44290000      -0.83680000       2.63460000
