17
Properties=species:S:1:pos:R:3 gdb_103620=T pbc="F F F"
O        0.02120000       1.32220000       0.04600000
C        0.02100000      -0.09720000      -0.05210000
C       -1.42290000      -0.57760000      -0.03780000
O       -2.15890000      -0.00410000      -1.09960000
C       -1.76950000      -2.08100000       0.11190000
C       -2.85500000      -1.72410000       1.20600000
O       -3.06990000      -2.51320000       2.33090000
C       -2.11360000      -0.39440000       1.34270000
O       -1.86790000       0.31590000       2.28430000
H       -0.30980000       1.53350000       0.92960000
H        0.49490000      -0.34970000      -1.00630000
H        0.59810000      -0.56430000       0.75810000
H       -1.86720000       0.91810000      -1.14090000
H       -2.14690000      -2.56130000      -0.79010000
H       -0.94260000      -2.65600000       0.53710000
H       -3.81390000      -1.57430000       0.69750000
H       -2.42720000      -2.26170000       3.00450000
