17
Properties=species:S:1:pos:R:3 gdb_66489=T pbc="F F F"
C        0.01880000       1.46310000      -0.09220000
C       -0.06080000      -0.03050000      -0.01680000
O        0.31160000      -0.73550000      -1.23080000
C       -0.41320000      -1.85730000      -0.68470000
C        0.27280000      -2.26270000       0.64820000
C        0.54560000      -0.83380000       1.17490000
C       -0.74060000      -1.52840000       1.49920000
O       -1.28090000      -1.77760000       2.73320000
C       -1.33430000      -0.93340000       0.17520000
H        1.05680000       1.78250000      -0.23610000
H       -0.57690000       1.84220000      -0.92720000
H       -0.35050000       1.91010000       0.83580000
H       -0.71490000      -2.59960000      -1.42190000
H        0.92390000      -3.09390000       0.88230000
H        1.38890000      -0.60430000       1.81230000
H       -1.82750000      -2.56940000       2.67370000
H       -2.35450000      -0.64330000      -0.06500000
