20
Properties=species:S:1:pos:R:3 gdb_91583=T pbc="F F F"
C       -0.50020000       1.08570000      -0.20170000
C        0.14170000      -0.19720000       0.31140000
C        1.23730000      -0.92490000      -0.51760000
N        2.19670000      -0.95150000       0.64560000
C        2.45190000       0.46690000       0.95780000
C        1.18580000      -0.12590000       1.43720000
C        0.89330000      -0.39030000       2.89340000
C        0.20080000      -1.72420000       3.10220000
O       -0.83070000      -1.87570000       3.70490000
H        0.24920000       1.83060000      -0.48730000
H       -1.11990000       0.88420000      -1.08210000
H       -1.14550000       1.53480000       0.56100000
H       -0.64510000      -0.90790000       0.58490000
H        0.97630000      -1.94090000      -0.81900000
H        1.63000000      -0.38510000      -1.38660000
H        3.24250000       0.60750000       1.68910000
H        2.45720000       1.19110000       0.14600000
H        1.84110000      -0.42340000       3.44750000
H        0.27250000       0.40160000       3.32600000
H        0.73440000      -2.58420000       2.63970000
