19
Properties=species:S:1:pos:R:3 gdb_63899=T pbc="F F F"
C       -0.50040000       1.60390000       0.19370000
C       -0.03330000       0.15850000       0.00870000
C       -1.21800000      -0.81130000      -0.05600000
O        0.73310000       0.03480000      -1.20430000
C        2.02460000      -0.45040000      -0.93900000
C        2.95090000       0.46810000      -0.21990000
C        2.22140000      -0.64820000       0.54360000
C        0.91050000      -0.28200000       1.15110000
O        0.58040000      -0.37560000       2.30730000
H        0.34390000       2.29850000       0.19690000
H       -1.17340000       1.88890000      -0.62010000
H       -1.03170000       1.70060000       1.14430000
H       -1.88150000      -0.53380000      -0.87990000
H       -0.87100000      -1.83500000      -0.22310000
H       -1.77560000      -0.78210000       0.88390000
H        2.38310000      -1.15140000      -1.68440000
H        4.01880000       0.31770000      -0.33460000
H        2.64780000       1.49750000      -0.06690000
H        2.80080000      -1.44040000       0.99920000
