21
Properties=species:S:1:pos:R:3 gdb_126184=T pbc="F F F"
C        0.03660000       1.59930000       0.22970000
C       -0.00520000       0.07320000       0.02690000
C       -1.39210000      -0.47600000      -0.10040000
C       -2.18750000      -0.74630000      -1.20160000
C       -1.84570000      -0.58550000      -2.65090000
C       -3.41430000      -1.21520000      -0.65640000
C       -4.63590000      -1.65710000      -1.39790000
N       -3.38360000      -1.23430000       0.67370000
N       -2.15290000      -0.77900000       0.98600000
H        1.06860000       1.95200000       0.32210000
H       -0.42820000       2.11680000      -0.61450000
H       -0.50460000       1.89130000       1.13500000
H        0.56180000      -0.18980000      -0.87220000
H        0.50860000      -0.41970000       0.86230000
H       -2.06450000      -1.49630000      -3.22030000
H       -2.41440000       0.22620000      -3.12180000
H       -0.78440000      -0.35980000      -2.79200000
H       -4.41430000      -2.48420000      -2.08280000
H       -5.39920000      -1.99070000      -0.69190000
H       -5.05750000      -0.84570000      -2.00290000
H       -1.88550000      -0.72320000       1.95390000
