17
Properties=species:S:1:pos:R:3 gdb_35568=T pbc="F F F"
C       -0.29380000      -1.23320000      -0.53850000
C       -0.17650000      -0.06640000      -0.27120000
C       -0.02150000       1.32880000       0.07540000
C       -0.01440000       1.70750000       1.59890000
C        1.36860000       2.39700000       1.43100000
O        2.47220000       1.74760000       2.03050000
C        2.79770000       0.66500000       1.18420000
O        2.51100000       1.07520000      -0.14030000
C        1.42180000       1.96000000      -0.06400000
H       -0.39990000      -2.26000000      -0.78700000
H       -0.74400000       1.93370000      -0.48190000
H       -0.82720000       2.36960000       1.90310000
H        0.01420000       0.84890000       2.27150000
H        1.42030000       3.45770000       1.67900000
H        3.86670000       0.45410000       1.26900000
H        2.20670000      -0.22870000       1.44090000
H        1.52620000       2.70720000      -0.85170000
