15
Properties=species:S:1:pos:R:3 gdb_6325=T pbc="F F F"
N        0.25540000       0.52630000       0.81550000
C       -0.10800000       0.14260000      -0.43830000
O        0.33690000       0.64110000      -1.45340000
C       -1.18210000      -0.95370000      -0.48360000
C       -0.84000000      -2.21590000       0.33940000
O       -0.76010000      -1.95230000       1.72020000
C       -1.89460000      -3.27670000       0.09000000
O       -2.56680000      -3.71810000       0.99060000
H        1.01290000       1.18470000       0.89980000
H       -0.01810000      -0.03020000       1.61170000
H       -2.12900000      -0.54470000      -0.11120000
H       -1.30930000      -1.21270000      -1.53740000
H        0.12300000      -2.61690000      -0.01810000
H       -1.47450000      -2.47040000       2.12750000
H       -2.02500000      -3.60930000      -0.95840000
