18
Properties=species:S:1:pos:R:3 gdb_77885=T pbc="F F F"
C       -0.16040000       1.30130000      -0.36650000
N       -0.07150000      -0.01970000       0.22040000
C       -1.08420000      -1.07330000       0.18160000
C       -0.95060000      -1.91400000      -1.06150000
O       -0.49450000      -1.40020000      -2.27500000
C        0.03140000      -2.12800000       0.07070000
C        0.27330000      -3.43160000       0.77240000
C        0.98010000      -0.92240000       0.05490000
O        2.16330000      -0.75860000      -0.05540000
H        0.84710000       1.72400000      -0.38450000
H       -0.54570000       1.27000000      -1.39390000
H       -0.80120000       1.95200000       0.23670000
H       -1.94050000      -1.05400000       0.84570000
H       -1.68530000      -2.71890000      -1.14970000
H       -1.24420000      -1.01200000      -2.73990000
H       -0.61290000      -4.07310000       0.74340000
H        1.09580000      -3.97330000       0.29380000
H        0.54450000      -3.27310000       1.82090000
