21
Properties=species:S:1:pos:R:3 gdb_68604=T pbc="F F F"
C        0.04160000       1.52550000       0.11650000
C       -0.01810000       0.02950000       0.01180000
C        0.81030000      -0.70720000      -1.07240000
C        0.56290000      -2.16940000      -0.57910000
C       -0.33270000      -1.81530000       0.62740000
O        0.39730000      -0.69770000       1.22390000
C       -1.31380000      -0.79910000       0.04890000
C       -2.65350000      -0.40410000       0.55910000
C       -2.48370000      -0.91190000      -0.86810000
H        1.07310000       1.85500000       0.27810000
H       -0.32010000       1.98870000      -0.80760000
H       -0.56830000       1.88290000       0.95050000
H        0.43750000      -0.52190000      -2.08360000
H        1.86280000      -0.41700000      -1.02740000
H        0.05500000      -2.79770000      -1.31580000
H        1.48040000      -2.66930000      -0.26180000
H       -0.61760000      -2.59470000       1.33460000
H       -3.14770000      -1.05320000       1.27510000
H       -2.86760000       0.65130000       0.69740000
H       -2.58180000      -0.19310000      -1.67610000
H       -2.86440000      -1.90040000      -1.10660000
