23
Properties=species:S:1:pos:R:3 gdb_64216=T pbc="F F F"
C       -0.17130000       1.53890000      -0.00320000
C        0.00280000       0.02430000       0.03970000
O       -1.25420000      -0.62910000      -0.00100000
C        1.10120000      -0.49910000      -0.93830000
C        2.08850000      -0.55440000       0.25730000
C        0.86870000      -0.50930000       1.22160000
C        0.95390000       0.24380000       2.51900000
C       -0.10430000       0.04700000       3.57930000
C        1.28880000      -0.48480000       3.79930000
H        0.78890000       2.06090000       0.05680000
H       -0.64370000       1.83890000      -0.94760000
H       -0.80270000       1.87890000       0.82280000
H       -1.78100000      -0.23010000      -0.70220000
H        0.83640000      -1.49710000      -1.29640000
H        1.36430000       0.13230000      -1.79180000
H        2.75040000      -1.41960000       0.32810000
H        2.69770000       0.35190000       0.33130000
H        0.52380000      -1.53150000       1.41490000
H        1.35800000       1.24980000       2.43590000
H       -0.42300000       0.90770000       4.15710000
H       -0.89540000      -0.66440000       3.36830000
H        1.43840000      -1.55830000       3.74480000
H        1.92130000       0.01390000       4.52550000
