16
Properties=species:S:1:pos:R:3 gdb_22925=T pbc="F F F"
O       -0.10450000       1.31870000       0.37170000
N        0.00300000      -0.07860000       0.39900000
C       -1.02800000      -0.63440000      -0.08480000
C       -2.41900000      -0.19790000      -0.51470000
C       -2.86030000      -1.68570000      -0.42050000
O       -2.77050000      -2.35910000      -1.68260000
C       -1.42370000      -2.81400000      -1.42400000
C       -1.36790000      -2.10530000      -0.05350000
O       -0.89120000      -2.89400000       0.97740000
H        0.72650000       1.59860000       0.77140000
H       -2.88460000       0.47720000       0.21050000
H       -2.51040000       0.23180000      -1.51460000
H       -3.75630000      -1.93610000       0.14970000
H       -1.38240000      -3.90300000      -1.30550000
H       -0.70880000      -2.49420000      -2.18940000
H       -0.55880000      -2.30990000       1.66870000
