20
Properties=species:S:1:pos:R:3 gdb_115012=T pbc="F F F"
C        0.02040000       1.60230000       0.02100000
C       -0.18470000       0.09650000      -0.16490000
C        0.73040000      -0.50580000      -1.22470000
O        2.12180000      -0.27850000      -0.84570000
C        2.69850000      -1.50300000      -0.80400000
N        2.01250000      -2.53220000      -1.08180000
C        0.68510000      -2.03850000      -1.39360000
C       -0.49210000      -2.91050000      -1.03960000
C       -0.08830000      -2.72990000      -2.48330000
H        1.04810000       1.81910000       0.32370000
H       -0.17630000       2.14590000      -0.90990000
H       -0.65300000       1.99740000       0.78710000
H       -0.02160000      -0.43380000       0.78070000
H       -1.22170000      -0.10320000      -0.46200000
H        0.58220000       0.00910000      -2.18230000
H        3.74540000      -1.49920000      -0.52300000
H       -0.26300000      -3.85600000      -0.56230000
H       -1.40540000      -2.43680000      -0.69770000
H       -0.72120000      -2.11620000      -3.11770000
H        0.40220000      -3.55490000      -2.98630000
