17
Properties=species:S:1:pos:R:3 gdb_44564=T pbc="F F F"
N        0.26980000       1.01270000       0.53310000
C        0.10330000      -0.14090000       0.07180000
O        0.97830000      -0.97930000      -0.59180000
C       -0.04510000      -2.03770000      -0.68460000
C        0.14920000      -3.21590000       0.24630000
C        0.68450000      -2.92640000       1.60320000
N       -0.75560000      -3.10050000       1.41860000
C       -1.52170000      -1.83990000       1.29360000
C       -1.06560000      -1.10600000       0.01410000
H        1.22230000       1.34590000       0.37370000
H       -0.19670000      -2.31610000      -1.72740000
H        0.25250000      -4.20410000      -0.19030000
H        1.17020000      -3.71850000       2.16590000
H        1.07930000      -1.93190000       1.79220000
H       -2.57930000      -2.10650000       1.21170000
H       -1.40020000      -1.22570000       2.19040000
H       -1.89750000      -0.73690000      -0.58650000
