16
Properties=species:S:1:pos:R:3 gdb_14575=T pbc="F F F"
C       -0.01890000      -1.18590000      -0.00410000
C       -0.01430000       0.01570000       0.00200000
C        0.02860000       1.47150000       0.00910000
C        1.46410000       2.00660000      -0.00130000
O        1.38750000       3.41590000       0.00670000
C        2.66300000       4.02800000      -0.00180000
C        2.52000000       5.47760000       0.00720000
C        2.43180000       6.67500000       0.01440000
H       -0.03890000      -2.24740000      -0.00910000
H       -0.50050000       1.87400000      -0.86260000
H       -0.48450000       1.86500000       0.89440000
H        2.01230000       1.63650000       0.87980000
H        1.99610000       1.64560000      -0.89590000
H        3.25030000       3.70730000       0.87570000
H        3.23400000       3.71670000      -0.89340000
H        2.34670000       7.73350000       0.02120000
