21
Properties=species:S:1:pos:R:3 gdb_84866=T pbc="F F F"
C       -0.04570000       1.57380000       0.00790000
C        0.05130000       0.03610000      -0.00870000
C        0.68990000      -0.42240000      -1.30050000
C        1.59070000      -1.37330000      -1.54590000
C        2.25890000      -2.33770000      -0.59310000
C        1.43000000      -2.78610000       0.58790000
C        0.74120000      -1.98070000       1.39390000
C        0.72810000      -0.47260000       1.27630000
O        2.04860000       0.07930000       1.30780000
H        0.95130000       2.02060000       0.01350000
H       -0.58400000       1.93860000      -0.87260000
H       -0.58110000       1.92140000       0.89780000
H       -0.97650000      -0.35760000       0.01770000
H        0.34470000       0.14670000      -2.16380000
H        1.91500000      -1.48270000      -2.57940000
H        2.56910000      -3.22040000      -1.16240000
H        3.19140000      -1.88090000      -0.22820000
H        1.40770000      -3.85670000       0.77990000
H        0.15910000      -2.41130000       2.20530000
H        0.14890000      -0.06770000       2.12210000
H        2.50900000      -0.32600000       2.04940000
