17
Properties=species:S:1:pos:R:3 gdb_87276=T pbc="F F F"
C       -0.30400000       1.43380000      -0.06830000
N        0.02410000       0.01050000       0.01310000
C        1.39290000      -0.39340000      -0.16910000
C        0.77450000      -0.51980000       1.19470000
C        1.28200000       0.38710000       2.26930000
O        1.77500000       1.47570000       2.08160000
C        0.27290000      -1.89580000       1.60450000
N       -0.61490000      -1.88670000       2.64900000
O        0.64630000      -2.91720000       1.06800000
H        0.47580000       2.10030000       0.31390000
H       -0.48750000       1.65830000      -1.12340000
H       -1.23210000       1.61750000       0.48180000
H        1.55200000      -1.32020000      -0.71120000
H        2.14980000       0.38160000      -0.27210000
H        1.17790000      -0.01900000       3.29760000
H       -1.12870000      -1.04930000       2.87050000
H       -1.07110000      -2.76390000       2.85140000
