18
Properties=species:S:1:pos:R:3 gdb_49437=T pbc="F F F"
O       -0.45730000       0.35050000      -0.40980000
C       -0.16470000       1.50740000      -0.24080000
C        1.19620000       2.07900000       0.06520000
C        1.38170000       2.99320000       1.27690000
C        1.63790000       2.14760000       2.52430000
C        1.18070000       0.69140000       2.54710000
C        1.95720000       0.09620000       1.33440000
N        2.37680000       1.24720000       0.50010000
C        2.71310000       2.31280000       1.49360000
H       -0.93210000       2.31310000      -0.34480000
H        1.47720000       2.62420000      -0.85030000
H        1.13920000       4.04790000       1.33070000
H        1.70560000       2.71550000       3.44550000
H        1.45660000       0.20790000       3.48930000
H        0.09730000       0.58640000       2.43510000
H        2.87210000      -0.39860000       1.67620000
H        1.37230000      -0.60680000       0.74420000
H        3.71700000       2.69800000       1.61390000
