18
Properties=species:S:1:pos:R:3 gdb_109369=T pbc="F F F"
O        0.00970000       1.40710000      -0.06330000
C       -0.00680000      -0.01070000      -0.06570000
C       -1.43240000      -0.49080000      -0.00590000
C       -2.48010000       0.33310000       0.10620000
C       -3.88270000      -0.19950000       0.15700000
C       -3.92700000      -1.56250000      -0.51970000
O       -2.90000000      -2.43510000      -0.03080000
C       -1.62300000      -1.95410000      -0.00550000
N       -0.62480000      -2.73870000       0.07980000
H        0.92750000       1.68930000      -0.03330000
H        0.47050000      -0.42230000      -0.96800000
H        0.54460000      -0.42920000       0.78860000
H       -2.31090000       1.40160000       0.17280000
H       -4.22730000      -0.27330000       1.19840000
H       -4.57800000       0.47890000      -0.35080000
H       -4.86550000      -2.08880000      -0.33220000
H       -3.80620000      -1.44340000      -1.60500000
H       -0.94360000      -3.70950000       0.08060000
