21
Properties=species:S:1:pos:R:3 gdb_15264=T pbc="F F F"
C        0.78180000      -0.09120000      -0.44310000
C        0.13540000      -0.82510000       0.73880000
C       -1.33060000      -1.12350000       0.47990000
C       -1.83460000      -2.38010000      -0.16580000
C       -0.92750000      -3.50450000      -0.59830000
O       -1.66580000      -4.71570000      -0.47260000
N       -2.12770000      -2.08690000       1.23750000
C       -1.53860000      -2.89050000       2.29900000
H        1.82080000       0.17320000      -0.22430000
H        0.77400000      -0.71040000      -1.34610000
H        0.24380000       0.83460000      -0.67400000
H        0.70100000      -1.73450000       0.95690000
H        0.20770000      -0.19930000       1.63810000
H       -1.89200000      -0.21480000       0.25240000
H       -2.71420000      -2.30670000      -0.80580000
H       -0.62790000      -3.33020000      -1.64460000
H       -0.00800000      -3.54250000       0.00020000
H       -1.11720000      -5.43520000      -0.79930000
H       -0.47830000      -3.15300000       2.17530000
H       -1.63730000      -2.34630000       3.24410000
H       -2.10420000      -3.82300000       2.37740000
