17
Properties=species:S:1:pos:R:3 gdb_40426=T pbc="F F F"
C        0.80180000       1.31040000       0.22680000
O        1.01550000       0.08060000      -0.47050000
C       -0.27040000       0.31290000       0.09600000
C       -0.66730000      -0.56230000       1.23970000
O        0.32070000      -0.74220000       2.27920000
C       -0.08800000      -1.89050000       1.52730000
C       -1.15400000      -2.73730000       2.21060000
C       -2.32760000      -1.78290000       2.32190000
C       -2.07120000      -0.59760000       1.76320000
H        1.31830000       1.39150000       1.17990000
H        0.78700000       2.20410000      -0.39500000
H       -1.06360000       0.48990000      -0.63200000
H        0.68480000      -2.33270000       0.90650000
H       -1.40180000      -3.62390000       1.61320000
H       -0.81890000      -3.09680000       3.19110000
H       -3.24470000      -2.04770000       2.83610000
H       -2.74810000       0.24670000       1.71570000
