22
Properties=species:S:1:pos:R:3 gdb_112259=T pbc="F F F"
C        0.41310000      -0.73140000      -1.50970000
C       -0.12810000      -0.13180000      -0.20800000
C       -1.58120000      -0.51810000       0.04970000
C       -1.87240000      -1.98640000       0.48700000
C       -2.49650000      -1.36280000       1.75350000
O       -3.08570000      -1.75800000       2.72680000
N       -2.15270000      -0.09660000       1.34300000
C       -2.54750000       1.19060000       1.87370000
C       -1.40870000       1.97380000       2.53490000
H        1.45140000      -0.43210000      -1.67870000
H        0.38090000      -1.82580000      -1.48800000
H       -0.17360000      -0.39980000      -2.37350000
H        0.48060000      -0.45690000       0.64490000
H       -0.04830000       0.96170000      -0.24970000
H       -2.20780000      -0.19770000      -0.79520000
H       -2.57730000      -2.54150000      -0.13420000
H       -0.98770000      -2.59930000       0.67420000
H       -2.99860000       1.78530000       1.06780000
H       -3.33460000       0.98580000       2.60710000
H       -1.78580000       2.91780000       2.94150000
H       -0.97090000       1.39690000       3.35430000
H       -0.61410000       2.20830000       1.82040000
