17
Properties=species:S:1:pos:R:3 gdb_37810=T pbc="F F F"
C       -0.01550000       1.55260000       0.02590000
O        1.24920000       2.18320000       0.01450000
C        1.95480000       2.09040000      -1.19930000
C        2.21680000       0.64120000      -1.64810000
O        2.50290000      -0.17910000      -0.53200000
C        1.29520000      -0.80190000      -0.17520000
C        0.02120000       0.02940000      -0.06980000
C        0.38620000      -0.68480000      -1.35630000
O        1.08300000       0.08010000      -2.30820000
H       -0.46500000       1.83740000       0.98140000
H       -0.65290000       1.95460000      -0.77900000
H        1.43720000       2.61220000      -2.02040000
H        2.91480000       2.58500000      -1.02070000
H        3.06300000       0.61120000      -2.34490000
H        1.45150000      -1.68880000       0.42480000
H       -0.75980000      -0.46530000       0.50380000
H       -0.20710000      -1.47370000      -1.80050000
