27
Properties=species:S:1:pos:R:3 gdb_101824=T pbc="F F F"
C       -0.20260000       1.36350000      -0.03280000
O        0.07690000      -0.01520000      -0.03600000
C        0.67850000      -0.51210000       1.15630000
C       -0.34950000      -0.67140000       2.28030000
C        1.34380000      -1.84250000       0.79480000
C        2.47280000      -1.69640000      -0.23130000
C        3.04930000      -3.02260000      -0.75770000
C        4.03770000      -2.75910000      -1.90200000
C        3.71480000      -3.85840000       0.34540000
H        0.69890000       1.96190000       0.17490000
H       -0.57040000       1.61980000      -1.02990000
H       -0.97360000       1.64200000       0.70100000
H        1.45830000       0.19940000       1.48200000
H        0.13090000      -1.04720000       3.18930000
H       -0.82830000       0.28000000       2.52940000
H       -1.12970000      -1.37920000       1.98240000
H        1.71580000      -2.29990000       1.71840000
H        0.56740000      -2.51170000       0.40010000
H        2.08670000      -1.11580000      -1.07590000
H        3.28850000      -1.10170000       0.20660000
H        2.21230000      -3.60840000      -1.16560000
H        4.89730000      -2.17590000      -1.54950000
H        4.42290000      -3.69520000      -2.32010000
H        3.56590000      -2.19610000      -2.71410000
H        4.54060000      -3.30420000       0.80880000
H        3.01170000      -4.13250000       1.13760000
H        4.12880000      -4.78700000      -0.06200000
