20
Properties=species:S:1:pos:R:3 gdb_113395=T pbc="F F F"
O       -0.17940000       1.30110000      -0.63290000
C        0.00870000       0.14850000       0.17050000
C       -1.29700000      -0.59570000       0.34500000
N       -1.78950000      -1.27770000      -0.86490000
C       -1.43490000      -2.08000000       0.32660000
C       -0.22660000      -3.00140000       0.17720000
O       -0.57890000      -4.37200000       0.10880000
C       -2.59390000      -2.68280000       1.09350000
O       -3.27430000      -3.57520000       0.20130000
H       -0.55070000       0.98480000      -1.46520000
H        0.77560000      -0.51270000      -0.25530000
H        0.37460000       0.50390000       1.13960000
H       -2.03170000      -0.04920000       0.93540000
H       -2.80050000      -1.20080000      -0.94690000
H        0.34200000      -2.68860000      -0.70910000
H        0.42970000      -2.89910000       1.05140000
H       -1.42940000      -4.43050000      -0.34460000
H       -2.22010000      -3.22100000       1.97400000
H       -3.28030000      -1.89380000       1.43340000
H       -3.85780000      -4.13720000       0.72050000
