16
Properties=species:S:1:pos:R:3 gdb_42688=T pbc="F F F"
O        0.05230000       0.01600000      -0.00830000
C        0.00150000       1.21100000       0.00140000
C       -1.16320000       2.18670000       0.03670000
C       -0.71250000       3.22940000       1.09770000
C       -1.02030000       4.29770000       0.04830000
N       -0.84220000       3.25040000      -1.02590000
C        0.63740000       3.07390000      -1.24280000
C        1.09340000       2.29690000      -0.00010000
O        0.72210000       3.03350000       1.17730000
H       -2.18190000       1.81130000       0.01910000
H       -1.11650000       3.26180000       2.11140000
H       -2.05970000       4.64040000       0.06080000
H       -0.34290000       5.15410000      -0.01100000
H        0.81040000       2.49000000      -2.15490000
H        1.11760000       4.04860000      -1.35440000
H        2.12950000       1.97450000       0.07150000
