16
Properties=species:S:1:pos:R:3 gdb_88899=T pbc="F F F"
C        0.20440000       1.47470000      -0.25850000
C       -0.01750000       0.03030000       0.11080000
O        1.13560000      -0.81550000       0.22550000
C        0.35350000      -0.59090000       1.39320000
C        1.01650000       0.16690000       2.53690000
C        1.85220000      -0.69740000       3.35630000
C        2.53410000      -1.43060000       4.03170000
C        3.30570000      -2.25480000       4.79920000
N        3.96060000      -2.95520000       5.45500000
H        1.03380000       1.92220000       0.29270000
H        0.43240000       1.55400000      -1.32610000
H       -0.70150000       2.05950000      -0.06620000
H       -0.84520000      -0.44300000      -0.42150000
H       -0.21990000      -1.45860000       1.72320000
H        1.62470000       0.98610000       2.14170000
H        0.23900000       0.61680000       3.16920000
