15
Properties=species:S:1:pos:R:3 gdb_128278=T pbc="F F F"
C       -0.02870000       1.45420000       0.07310000
N       -0.02410000      -0.00460000       0.08870000
C       -1.21350000      -0.66250000       0.04700000
N       -2.39880000      -0.10410000       0.13610000
C       -3.24550000      -1.18600000       0.09090000
N       -2.69120000      -2.36310000      -0.02670000
N       -1.34310000      -2.04270000      -0.04770000
C       -0.34370000      -3.01400000      -0.08410000
O       -0.52970000      -4.19370000      -0.16860000
H        0.99170000       1.80400000       0.24070000
H       -0.40450000       1.86350000      -0.87250000
H       -0.66850000       1.81870000       0.87790000
H        0.75600000      -0.44550000      -0.37050000
H       -4.31920000      -1.07490000       0.14090000
H        0.66050000      -2.55550000      -0.01490000
