20
Properties=species:S:1:pos:R:3 gdb_90488=T pbc="F F F"
C       -0.02430000       1.35430000      -0.21980000
C        0.06100000      -0.13770000       0.02140000
O        1.13550000      -0.73760000      -0.77250000
C        1.83400000      -1.10620000       0.41540000
C        0.73650000      -0.56900000       1.32440000
C        1.03230000      -2.04670000       1.27980000
N        0.07160000      -3.03010000       0.84030000
C        0.19670000      -3.56730000      -0.52150000
C        0.58860000      -4.38860000       0.64880000
H        0.92870000       1.84100000       0.00820000
H       -0.27620000       1.55600000      -1.26520000
H       -0.80280000       1.79530000       0.41280000
H       -0.89570000      -0.62990000      -0.18950000
H        2.91460000      -1.00330000       0.41240000
H        0.77900000       0.02460000       2.22890000
H        1.58140000      -2.36930000       2.16300000
H       -0.74670000      -3.75000000      -1.02830000
H        0.98500000      -3.17170000      -1.15170000
H        1.65370000      -4.55280000       0.80450000
H       -0.05330000      -5.18580000       1.01310000
