21
Properties=species:S:1:pos:R:3 gdb_104767=T pbc="F F F"
C        0.86640000       1.50620000       0.24330000
C        0.13350000       0.17880000       0.01390000
C        0.53320000      -0.47660000      -1.29720000
C        1.72090000      -1.36150000      -1.37140000
C        0.33560000      -1.98910000      -1.54090000
C       -0.20300000      -2.89780000      -0.50930000
O       -1.00960000      -3.77110000      -0.72370000
O        0.35710000       0.30720000      -2.44020000
C       -0.99280000       0.57840000      -2.78170000
H        1.94950000       1.35330000       0.28940000
H        0.66760000       2.20960000      -0.56920000
H        0.54910000       1.96730000       1.18290000
H        0.34770000      -0.51070000       0.83640000
H       -0.95090000       0.34030000       0.03350000
H        2.33620000      -1.30850000      -2.26140000
H        2.25350000      -1.57870000      -0.45060000
H        0.04020000      -2.24360000      -2.55280000
H        0.19910000      -2.73560000       0.51810000
H       -0.97230000       1.08760000      -3.74750000
H       -1.57790000      -0.34650000      -2.87450000
H       -1.48370000       1.23330000      -2.05000000
