19
Properties=species:S:1:pos:R:3 gdb_18646=T pbc="F F F"
C       -0.19850000       1.82220000       0.73250000
C       -0.52110000       0.32830000       0.70210000
O       -0.32270000      -0.22880000      -0.60600000
C        0.93590000      -0.89550000      -0.67060000
C        1.31160000      -1.24710000       0.75540000
C        0.38070000      -0.47160000       1.63040000
N        0.33960000      -1.92520000       1.59860000
C       -0.79260000      -2.66350000       1.04790000
H        0.86380000       1.99970000       0.53560000
H       -0.78210000       2.34560000      -0.02930000
H       -0.44140000       2.25230000       1.71000000
H       -1.58490000       0.18170000       0.93150000
H        0.81220000      -1.76530000      -1.32700000
H        1.71480000      -0.25120000      -1.10820000
H        2.35970000      -1.41550000       0.98910000
H        0.67920000      -0.01690000       2.57180000
H       -1.24850000      -2.21940000       0.15450000
H       -0.45600000      -3.67620000       0.80400000
H       -1.55750000      -2.74960000       1.82620000
