18
Properties=species:S:1:pos:R:3 gdb_86974=T pbc="F F F"
C       -0.04840000       1.55030000       0.01760000
C        0.06990000       0.02650000       0.05810000
C        0.67660000      -0.54020000      -1.23440000
C        1.02300000      -2.02290000      -1.02850000
O        1.82200000      -2.21670000       0.12870000
C        1.59210000      -1.37480000       1.17290000
N        0.83990000      -0.36420000       1.24050000
C       -0.24250000      -2.87020000      -0.96150000
O       -0.62770000      -3.45590000       0.01220000
H        0.93920000       2.00930000      -0.09650000
H       -0.67930000       1.87390000      -0.81680000
H       -0.48320000       1.91610000       0.95090000
H       -0.94080000      -0.38880000       0.18470000
H       -0.00740000      -0.42710000      -2.08260000
H        1.59660000       0.00000000      -1.48250000
H        1.61420000      -2.39430000      -1.87560000
H        2.19720000      -1.68440000       2.02210000
H       -0.80630000      -2.88740000      -1.92400000
