14
Properties=species:S:1:pos:R:3 gdb_81525=T pbc="F F F"
O        0.16500000       1.42160000      -0.09350000
C        0.11830000       0.04220000      -0.06520000
C        0.00550000      -0.65430000       1.32690000
O       -1.37290000      -0.11690000       1.43010000
C       -1.28570000      -0.63720000       0.04160000
C       -0.61400000      -1.90780000       0.61880000
O        0.13780000      -2.66490000      -0.28000000
C       -1.45830000      -2.73830000       1.48120000
N       -2.05670000      -3.48010000       2.13470000
H       -0.48100000       1.72650000       0.56010000
H        0.82740000      -0.36230000      -0.78470000
H        0.63520000      -0.60030000       2.21470000
H       -2.17290000      -0.56200000      -0.58560000
H        0.53780000      -3.40650000       0.18810000
