20
Properties=species:S:1:pos:R:3 gdb_76086=T pbc="F F F"
C        0.21380000       1.74040000      -0.03890000
C       -0.01000000       0.24500000      -0.05000000
C        1.18350000      -0.72670000      -0.04410000
C        2.53380000      -0.25670000      -0.11100000
C        3.67770000       0.09910000      -0.24200000
C        0.22100000      -0.59880000       1.16300000
N        0.44830000      -0.05920000       2.46950000
C        1.37610000      -0.75060000       3.36040000
C        1.67820000       0.62040000       2.86530000
H        1.11130000       2.01790000       0.51600000
H        0.32710000       2.11880000      -1.05990000
H       -0.63870000       2.25080000       0.42060000
H       -0.83520000      -0.06890000      -0.68440000
H        1.03240000      -1.64260000      -0.61070000
H        4.68720000       0.41390000      -0.33520000
H       -0.42860000      -1.46710000       1.24460000
H        1.02320000      -0.91050000       4.37560000
H        1.96920000      -1.56190000       2.94320000
H        2.48150000       0.71850000       2.14520000
H        1.52740000       1.47900000       3.51470000
