18
Properties=species:S:1:pos:R:3 gdb_44369=T pbc="F F F"
O        0.00130000      -0.12430000      -0.39630000
C        0.00540000       1.02800000      -0.03360000
C       -1.30170000       1.76500000       0.27830000
C       -1.15940000       3.11750000       0.95780000
C       -0.49190000       3.34010000       2.30220000
C        0.67680000       2.37800000       2.48170000
N        1.25670000       2.83510000       1.17340000
C        1.30340000       1.82780000       0.11770000
C        0.16840000       3.81450000       1.01760000
H       -1.79290000       1.90560000      -0.69420000
H       -1.94550000       1.07650000       0.83820000
H       -2.00150000       3.78950000       0.80920000
H       -0.95650000       3.92980000       3.08120000
H        1.34170000       2.63570000       3.31130000
H        0.43770000       1.30810000       2.54400000
H        2.12080000       1.12010000       0.28790000
H        1.50950000       2.33630000      -0.83400000
H        0.36790000       4.80990000       0.63580000
