21
Properties=species:S:1:pos:R:3 gdb_106890=T pbc="F F F"
C       -0.31190000       1.49090000      -0.01770000
C        0.09670000       0.01270000       0.05600000
C        0.77040000      -0.47690000      -1.19770000
C        0.03230000      -0.99910000      -2.38030000
C        0.97590000      -1.95280000      -1.64990000
C        2.38380000      -1.61600000      -2.02530000
O        3.33710000      -2.26210000      -2.36200000
C        2.22280000      -0.12580000      -1.61050000
C        2.52850000       0.98870000      -2.60440000
H        0.55950000       2.13620000      -0.16860000
H       -1.00420000       1.66700000      -0.84730000
H       -0.80420000       1.80700000       0.90690000
H        0.76840000      -0.13900000       0.91100000
H       -0.79140000      -0.60220000       0.24820000
H       -1.01780000      -1.22750000      -2.22190000
H        0.25990000      -0.67490000      -3.39120000
H        0.61510000      -2.87930000      -1.21930000
H        2.83780000       0.00310000      -0.70910000
H        1.88880000       0.93500000      -3.49030000
H        2.39280000       1.97670000      -2.15280000
H        3.56750000       0.91240000      -2.94050000
