13
Properties=species:S:1:pos:R:3 gdb_4692=T pbc="F F F"
N        0.16030000       1.39720000       0.14050000
C       -0.00040000       0.01220000       0.02370000
C       -1.10130000      -0.81560000      -0.04000000
N       -0.71940000      -2.13030000      -0.05530000
C        0.60040000      -2.12450000      -0.01150000
N        1.08010000      -0.82980000       0.04300000
C        1.46610000      -3.23870000      -0.02670000
C        2.23240000      -4.16810000      -0.03300000
H        0.66570000       1.80710000      -0.63880000
H       -0.73610000       1.86050000       0.21890000
H       -2.14110000      -0.52670000      -0.07600000
H        2.04230000      -0.55720000       0.15770000
H        2.89350000      -4.99890000      -0.04000000
