18
Properties=species:S:1:pos:R:3 gdb_64500=T pbc="F F F"
O       -0.18090000       1.36610000      -0.31960000
C       -0.04510000      -0.02380000      -0.10300000
C        0.91160000      -0.66140000      -1.08590000
C        0.89890000      -0.23810000      -2.50760000
N        2.03890000       0.11100000      -1.63820000
C       -0.03860000      -0.55610000       1.37250000
C       -1.49670000      -0.06990000       1.55390000
C       -1.37360000      -0.78680000       0.19030000
O       -0.56070000      -1.83680000       0.85290000
H        0.47670000       1.82710000       0.21060000
H        1.15330000      -1.69140000      -0.85460000
H        1.11670000      -0.96230000      -3.28700000
H        0.21610000       0.55800000      -2.78950000
H        1.92700000       1.08790000      -1.37340000
H        0.78250000      -0.60390000       2.08980000
H       -2.06140000      -0.62420000       2.30330000
H       -1.69600000       1.00110000       1.55450000
H       -2.14650000      -1.11290000      -0.50560000
