19
Properties=species:S:1:pos:R:3 gdb_83780=T pbc="F F F"
O        0.09260000       1.48850000      -0.10980000
C       -0.04300000       0.09400000       0.00000000
C        0.23520000      -0.65550000       1.34070000
C       -0.35720000       0.12350000       2.52680000
C       -1.82550000       0.52110000       2.20710000
C       -2.34240000      -0.47950000       1.17860000
O       -1.98690000      -1.80840000       1.67360000
C       -0.81100000      -1.73850000       0.85570000
C       -1.39530000      -0.64310000      -0.06470000
H       -0.43270000       1.90990000       0.57550000
H        0.59420000      -0.31330000      -0.79180000
H        1.25920000      -0.98160000       1.53090000
H       -0.33910000      -0.51210000       3.41520000
H        0.25750000       1.00180000       2.74830000
H       -2.44380000       0.47400000       3.10890000
H       -1.92060000       1.54560000       1.82450000
H       -3.41280000      -0.39990000       0.97420000
H       -0.43480000      -2.71240000       0.54100000
H       -1.89150000      -0.83360000      -1.01620000
