19
Properties=species:S:1:pos:R:3 gdb_109181=T pbc="F F F"
O        0.07980000       1.41730000      -0.01350000
C        0.01870000       0.02380000      -0.04970000
C       -1.42320000      -0.46300000      -0.03560000
N       -2.33820000       0.43160000      -0.00670000
C       -3.72770000      -0.00810000      -0.00300000
C       -3.92920000      -1.42830000       0.54640000
O       -5.22790000      -1.93230000       0.28390000
C       -2.94690000      -2.38310000      -0.13210000
N       -1.61320000      -1.81480000      -0.03430000
H       -0.85720000       1.69080000       0.00180000
H        0.51070000      -0.37030000      -0.95590000
H        0.54670000      -0.41860000       0.81180000
H       -4.31740000       0.70410000       0.58880000
H       -4.13470000       0.02600000      -1.02380000
H       -3.71690000      -1.42730000       1.62700000
H       -5.86590000      -1.35550000       0.71560000
H       -2.96870000      -3.35930000       0.36090000
H       -3.26220000      -2.52780000      -1.17530000
H       -0.81710000      -2.41500000      -0.16970000
