18
Properties=species:S:1:pos:R:3 gdb_52908=T pbc="F F F"
C        0.21920000       1.59270000      -0.26870000
C        0.12250000       0.14800000      -0.12380000
C        0.05220000      -1.04870000      -0.01350000
C       -0.06500000      -2.48760000       0.15210000
C        0.03590000      -3.07130000       1.61780000
C       -1.14940000      -4.01640000       1.30270000
C       -1.51240000      -3.12070000       0.09310000
C        0.84760000      -3.19600000      -0.75180000
N        1.55680000      -3.78070000      -1.45300000
H        0.96670000       1.86220000      -1.02250000
H       -0.73810000       2.02540000      -0.57860000
H        0.51030000       2.06760000       0.67440000
H        0.99450000      -3.51030000       1.89590000
H       -0.22930000      -2.29020000       2.33240000
H       -0.80920000      -5.00610000       0.98930000
H       -1.90830000      -4.13530000       2.07720000
H       -2.24790000      -2.35460000       0.34450000
H       -1.79030000      -3.59910000      -0.84650000
