21
Properties=species:S:1:pos:R:3 gdb_91194=T pbc="F F F"
C        0.00180000       1.57580000      -0.19250000
C        0.06420000       0.07810000       0.02240000
O        0.98790000      -0.58260000      -0.87820000
C        1.42790000      -1.46370000       0.19240000
C        2.90230000      -1.67090000       0.29350000
C        3.57910000      -1.32500000       1.38900000
C        2.93910000      -0.58610000       2.53980000
C        1.77000000       0.28080000       2.03950000
C        0.76120000      -0.56240000       1.25620000
H        0.98550000       2.04250000      -0.10350000
H       -0.38030000       1.78690000      -1.19640000
H       -0.67630000       2.03920000       0.53250000
H       -0.94520000      -0.34550000      -0.10400000
H        0.92310000      -2.43820000       0.09250000
H        3.39390000      -2.16640000      -0.53990000
H        4.63920000      -1.55430000       1.46610000
H        2.59260000      -1.29420000       3.30690000
H        3.68610000       0.04430000       3.03520000
H        1.27900000       0.79080000       2.87500000
H        2.19240000       1.05620000       1.39330000
H        0.08810000      -1.08600000       1.94040000
