17
Properties=species:S:1:pos:R:3 gdb_19312=T pbc="F F F"
C       -0.15090000       1.38700000      -0.14930000
C        1.25550000       0.97010000       0.15720000
C        0.16820000      -0.08880000       0.04150000
C       -0.29070000      -0.78130000       1.20920000
C       -0.67750000      -1.36570000       2.19270000
C       -1.13840000      -2.08270000       3.34710000
C       -2.03320000      -1.40770000       4.33600000
N       -2.57100000      -2.46040000       3.47040000
H       -0.72150000       1.87160000       0.63370000
H       -0.38920000       1.71520000      -1.15470000
H        1.99410000       1.00860000      -0.63550000
H        1.64240000       1.16950000       1.14920000
H        0.19040000      -0.68410000      -0.86710000
H       -0.46880000      -2.85420000       3.71930000
H       -1.95410000      -1.67220000       5.38680000
H       -2.30070000      -0.37370000       4.13950000
H       -3.08140000      -2.03700000       2.69880000
