17
Properties=species:S:1:pos:R:3 gdb_106447=T pbc="F F F"
O       -0.07150000       1.43240000       0.04890000
C       -0.01050000       0.02120000      -0.08190000
C       -1.42840000      -0.48290000      -0.04840000
C       -2.49330000      -0.35910000       1.06450000
N       -3.25490000      -1.16050000      -0.01260000
C       -2.60550000      -0.16490000      -1.00000000
C       -1.92870000      -1.95310000      -0.13330000
C       -1.73200000      -2.72220000      -1.35420000
N       -1.53910000      -3.34290000      -2.31040000
H        0.82180000       1.78240000      -0.01700000
H        0.46150000      -0.28360000      -1.02930000
H        0.56430000      -0.44050000       0.73770000
H       -2.34080000      -0.91140000       1.99600000
H       -2.92100000       0.62760000       1.24460000
H       -3.03850000       0.83470000      -0.94700000
H       -2.56040000      -0.53190000      -2.02720000
H       -1.74370000      -2.59040000       0.73590000
