18
Properties=species:S:1:pos:R:3 gdb_114728=T pbc="F F F"
O        0.29370000       1.18160000       0.30260000
C        0.08270000      -0.20570000       0.20730000
C       -1.40250000      -0.54260000      -0.03220000
C       -1.77370000      -2.02200000      -0.27800000
N       -2.78240000      -2.45110000       0.73600000
C       -2.24390000      -2.44890000       2.08520000
C       -3.06630000      -1.29240000       1.60600000
C       -2.25610000      -0.11730000       1.16600000
O       -2.26060000       0.98940000       1.65950000
H       -0.37840000       1.52900000       0.90700000
H        0.68120000      -0.56660000      -0.63680000
H        0.44020000      -0.73890000       1.10640000
H       -1.72980000       0.07630000      -0.87560000
H       -2.22470000      -2.15370000      -1.26400000
H       -0.90700000      -2.68900000      -0.22070000
H       -2.69960000      -3.15080000       2.77710000
H       -1.17430000      -2.30140000       2.22490000
H       -4.07400000      -1.13790000       1.97530000
