19
Properties=species:S:1:pos:R:3 gdb_12777=T pbc="F F F"
C       -0.07170000       1.52930000       0.09400000
C        0.10910000       0.04520000       0.01080000
N       -0.76770000      -0.89580000       0.75800000
C        0.70500000      -0.93820000       0.95880000
C        1.25720000      -1.79510000      -0.18200000
C        0.64620000      -0.75570000      -1.19580000
C       -0.35250000      -1.25180000      -2.23140000
O        0.25730000      -2.08560000      -3.21090000
H        0.80640000       2.05490000      -0.29660000
H       -0.94210000       1.86050000      -0.48500000
H       -0.22060000       1.84960000       1.13150000
H       -1.15870000      -0.37080000       1.54080000
H        1.12800000      -0.78530000       1.94500000
H        2.34750000      -1.83190000      -0.22120000
H        0.85530000      -2.81300000      -0.22030000
H        1.44840000      -0.20630000      -1.69830000
H       -1.18400000      -1.76010000      -1.72590000
H       -0.77030000      -0.40420000      -2.78700000
H        0.54540000      -2.88860000      -2.76530000
