15
Properties=species:S:1:pos:R:3 gdb_29145=T pbc="F F F"
C       -0.02920000       1.48910000      -0.02720000
C        0.01040000      -0.00650000      -0.05030000
N        0.01730000      -0.65070000      -1.17120000
C        0.04850000      -2.03060000      -1.15870000
N        0.13110000      -2.62440000      -2.41880000
C        0.05570000      -2.70720000       0.01270000
O        0.05110000      -2.05160000       1.20520000
C        0.03640000      -0.68230000       1.26660000
O        0.03850000      -0.12730000       2.33610000
H        0.84190000       1.88370000       0.50670000
H       -0.04970000       1.87790000      -1.04550000
H       -0.90710000       1.83900000       0.52630000
H       -0.25310000      -2.02510000      -3.13660000
H       -0.23950000      -3.56230000      -2.47480000
H        0.07240000      -3.78210000       0.13070000
