19
Properties=species:S:1:pos:R:3 gdb_38388=T pbc="F F F"
C       -0.00320000       1.47080000      -0.10800000
C        1.56160000       1.45430000      -0.08440000
C        1.53250000      -0.07360000       0.06010000
C       -0.00830000      -0.05620000       0.03430000
C        0.77770000      -0.68570000      -1.07390000
C        0.73590000      -0.38220000      -2.59940000
C        0.68190000      -1.90500000      -2.82240000
O        1.84990000      -2.47390000      -2.22190000
C        0.72680000      -2.17280000      -1.37600000
H       -0.42160000       1.97920000       0.76320000
H       -0.48310000       1.87260000      -1.00670000
H        2.07540000       1.84050000      -0.97050000
H        1.96370000       1.95910000       0.79650000
H        2.20510000      -0.66280000       0.67280000
H       -0.71280000      -0.63110000       0.62550000
H       -0.18070000       0.13170000      -2.90250000
H        1.60460000       0.11610000      -3.03700000
H        0.21480000      -2.45880000      -3.62810000
H        0.31870000      -2.98370000      -0.78320000
