20
Properties=species:S:1:pos:R:3 gdb_68580=T pbc="F F F"
C       -0.00740000       1.47170000       0.00590000
C        0.00050000      -0.03280000       0.00080000
C        0.62000000      -0.97270000      -1.08250000
C        0.01210000      -1.91700000      -0.00840000
C        0.03150000      -3.43570000      -0.03350000
C       -0.63090000      -4.01950000       1.13290000
N       -1.15980000      -4.45720000       2.06240000
C        0.63300000      -0.98190000       1.06800000
C       -1.23510000      -0.98820000       0.00500000
H        1.01260000       1.87110000      -0.00010000
H       -0.52740000       1.86600000      -0.87400000
H       -0.51410000       1.85860000       0.89650000
H        0.13840000      -0.97300000      -2.06530000
H        1.71100000      -0.96770000      -1.17050000
H       -0.46500000      -3.80560000      -0.93880000
H        1.06530000      -3.80050000      -0.06690000
H        1.72500000      -0.97750000       1.14120000
H        0.16370000      -0.99450000       2.05540000
H       -1.84410000      -1.00130000       0.91290000
H       -1.85600000      -0.98960000      -0.89630000
