23
Properties=species:S:1:pos:R:3 gdb_58429=T pbc="F F F"
C        0.09850000       1.50600000       0.04330000
C        0.06060000      -0.02840000       0.14890000
C        0.80060000      -0.51010000       1.40890000
C       -1.37770000      -0.58330000       0.06880000
C       -2.26670000      -0.09780000       1.21570000
C       -2.09810000      -0.66990000      -1.32860000
C       -1.14620000      -1.79590000      -1.79880000
C       -1.60820000      -2.08390000      -0.35060000
O       -2.98150000      -1.72830000      -0.78230000
H        1.13330000       1.85690000      -0.02790000
H       -0.43480000       1.86180000      -0.84480000
H       -0.34920000       1.98760000       0.91810000
H        0.62690000      -0.40960000      -0.70490000
H        0.36980000      -0.08910000       2.32260000
H        0.77500000      -1.60140000       1.49830000
H        1.85140000      -0.20440000       1.37340000
H       -2.35570000       0.99290000       1.21300000
H       -3.26510000      -0.52280000       1.12370000
H       -1.85550000      -0.38980000       2.18680000
H       -2.57540000       0.12010000      -1.91150000
H       -1.59180000      -2.46150000      -2.53800000
H       -0.09980000      -1.58200000      -2.01270000
H       -1.49640000      -2.99330000       0.24280000
