16
Properties=species:S:1:pos:R:3 gdb_71926=T pbc="F F F"
O        0.40330000       1.36270000      -0.14900000
C        0.12850000       0.01620000      -0.11120000
C        0.38990000      -0.78740000      -1.40040000
C       -0.76950000      -1.74860000      -1.06290000
N       -0.33810000      -2.73220000      -0.01720000
C       -0.66990000      -1.74210000       1.05100000
C       -1.30940000      -0.75210000       0.01250000
C        0.44320000      -0.69640000       1.20030000
O        1.01680000      -0.24650000       2.15810000
H        0.67500000       1.62150000       0.74370000
H        0.12170000      -0.14920000      -2.24830000
H        1.38260000      -1.21590000      -1.55540000
H       -1.34870000      -2.16360000      -1.88750000
H       -1.01680000      -3.48700000       0.02850000
H       -1.12540000      -2.11980000       1.96580000
H       -2.27700000      -0.26450000       0.08790000
