22
Properties=species:S:1:pos:R:3 gdb_12540=T pbc="F F F"
C       -0.01870000       1.59400000      -0.02370000
C       -0.01750000       0.05850000      -0.00440000
C        0.71480000      -0.47960000      -1.24700000
C        0.62540000      -1.98960000      -1.50380000
C        1.34230000      -2.87820000      -0.47060000
C        0.67770000      -2.94690000       0.88370000
C        0.35120000      -1.90550000       1.64880000
C        0.58610000      -0.44870000       1.32520000
H        1.00310000       1.98830000       0.03520000
H       -0.46910000       1.97990000      -0.94420000
H       -0.58060000       2.00340000       0.82230000
H       -1.06060000      -0.28500000      -0.04860000
H        0.31700000       0.03980000      -2.12840000
H        1.77440000      -0.18890000      -1.18230000
H       -0.42790000      -2.29120000      -1.56680000
H        1.06370000      -2.19110000      -2.48940000
H        1.42350000      -3.89180000      -0.87730000
H        2.37710000      -2.51910000      -0.35870000
H        0.45600000      -3.94390000       1.25860000
H       -0.12080000      -2.10790000       2.60790000
H        1.66770000      -0.24020000       1.31110000
H        0.18100000       0.15910000       2.14170000
