23
Properties=species:S:1:pos:R:3 gdb_114553=T pbc="F F F"
C       -0.18170000       1.30210000       0.07610000
O        0.21260000      -0.03960000      -0.08120000
C        0.77400000      -0.61060000       1.08470000
C       -0.27360000      -1.02630000       2.17250000
C       -0.01630000      -2.54450000       2.17530000
C        0.07320000      -2.86260000       0.65710000
C        1.36840000      -1.99190000       0.74530000
C        2.45780000      -2.02800000      -0.30040000
C        1.53750000      -2.59540000       2.17490000
H        0.66560000       1.94280000       0.36860000
H       -0.56570000       1.64490000      -0.88810000
H       -0.97390000       1.41900000       0.83130000
H        1.54270000       0.06910000       1.48620000
H       -0.08840000      -0.56370000       3.14660000
H       -1.28860000      -0.77000000       1.85400000
H       -0.61190000      -3.15220000       2.85700000
H        0.30240000      -3.91290000       0.46000000
H       -0.72940000      -2.51490000       0.00240000
H        2.10560000      -1.58160000      -1.23530000
H        3.33800000      -1.46200000       0.02800000
H        2.77900000      -3.05390000      -0.50790000
H        2.07690000      -2.00900000       2.92700000
H        1.93220000      -3.61410000       2.14170000
