20
Properties=species:S:1:pos:R:3 gdb_91498=T pbc="F F F"
C       -0.01680000       1.44020000       0.12810000
N        0.14700000       0.00290000       0.05720000
C        0.94580000      -0.50740000      -1.07530000
C        1.89710000      -1.41390000      -0.30400000
C        2.34700000      -0.42630000       0.90150000
C        0.81980000      -0.59750000       1.24160000
C       -0.31800000      -1.19750000       2.11990000
O       -0.38260000      -2.33970000       1.18180000
C        1.00520000      -2.02040000       0.84340000
H        0.92920000       2.01260000       0.17210000
H       -0.57320000       1.78790000      -0.74850000
H       -0.60520000       1.69890000       1.01530000
H        0.32590000      -1.05000000      -1.79870000
H        1.48370000       0.28820000      -1.60950000
H        2.62370000      -2.00390000      -0.86400000
H        3.03630000      -0.89480000       1.60360000
H        2.71140000       0.55920000       0.60280000
H       -0.01460000      -1.53480000       3.11730000
H       -1.26080000      -0.64840000       2.15150000
H        1.64940000      -2.59200000       1.52040000
