22
Properties=species:S:1:pos:R:3 gdb_99747=T pbc="F F F"
C       -1.56530000      -0.59200000      -0.17770000
C       -0.13700000      -0.05470000      -0.04080000
C        0.60510000      -0.47560000       1.25640000
C       -0.14610000      -0.07970000       2.53660000
C        0.68790000      -0.30240000       3.79860000
O       -0.49120000       1.29810000       2.38660000
C        0.85970000      -1.98330000       1.23730000
N        2.03980000      -2.36060000       0.66180000
O        0.06910000      -2.80030000       1.67730000
H       -2.22190000      -0.15000000       0.57690000
H       -1.97310000      -0.33530000      -1.16040000
H       -1.60370000      -1.67880000      -0.06390000
H        0.46420000      -0.38520000      -0.89740000
H       -0.15330000       1.03780000      -0.06800000
H        1.57100000       0.04730000       1.26160000
H       -1.05060000      -0.69840000       2.59950000
H        0.12750000       0.00980000       4.68760000
H        0.93590000      -1.36010000       3.92140000
H        1.61290000       0.28270000       3.75930000
H       -0.96550000       1.56800000       3.17880000
H        2.65930000      -1.69920000       0.22820000
H        2.20370000      -3.34380000       0.51750000
