17
Properties=species:S:1:pos:R:3 gdb_37646=T pbc="F F F"
C       -0.03100000       1.52450000       0.02330000
C        1.51060000       1.49980000      -0.03440000
C        1.36920000       0.04070000      -0.56510000
C        1.89900000      -0.86480000       0.56810000
C        2.61130000       0.05950000       1.58720000
C        1.28090000       0.44510000       2.17040000
C        0.53590000      -0.55880000       1.25190000
N       -0.05520000       0.02360000      -0.01670000
N        2.04800000       1.38190000       1.33810000
H       -0.48780000       1.99070000       0.90200000
H       -0.49890000       1.91600000      -0.88390000
H        2.06860000       2.25350000      -0.59390000
H        1.51620000      -0.18470000      -1.62300000
H        2.25710000      -1.87050000       0.36740000
H        3.59230000      -0.04290000       2.03500000
H        1.00130000       0.75800000       3.17040000
H       -0.07510000      -1.31330000       1.74860000
