23
Properties=species:S:1:pos:R:3 gdb_107023=T pbc="F F F"
C       -0.06560000       0.70810000       1.02050000
O       -0.18980000      -0.43840000       0.19730000
C       -1.49600000      -0.79590000      -0.07240000
C       -2.35190000      -1.49900000       0.94530000
C       -2.00190000      -2.19620000      -0.35510000
C       -2.86570000      -1.67580000      -1.51440000
C       -4.36360000      -1.96000000      -1.49530000
C       -2.33170000      -0.21140000      -1.22630000
C       -3.31440000       0.92140000      -0.95080000
H        1.00090000       0.85210000       1.20910000
H       -0.46250000       1.60890000       0.53180000
H       -0.58690000       0.57320000       1.97860000
H       -1.79590000      -1.86690000       1.80200000
H       -3.36820000      -1.18860000       1.17290000
H       -1.44690000      -3.12680000      -0.35420000
H       -2.45430000      -2.02030000      -2.46820000
H       -4.83070000      -1.67480000      -0.54770000
H       -4.88070000      -1.41970000      -2.29590000
H       -4.55160000      -3.02910000      -1.64340000
H       -1.65430000       0.08190000      -2.03450000
H       -3.97080000       0.70050000      -0.10380000
H       -2.78500000       1.85310000      -0.72330000
H       -3.95160000       1.11190000      -1.82170000
