17
Properties=species:S:1:pos:R:3 gdb_75299=T pbc="F F F"
C       -0.04670000       1.48530000       0.04070000
C       -0.06530000      -0.00020000      -0.06340000
N       -0.12510000      -0.68150000      -1.13750000
C       -0.01970000      -2.11610000      -0.81260000
C        0.00040000      -2.20580000       0.73470000
C        1.31490000      -2.43550000       1.53130000
C        1.26880000      -0.92420000       1.82890000
O        1.97040000      -0.11620000       2.35860000
N        0.02440000      -0.77160000       1.13920000
H        0.83030000       1.80200000       0.61570000
H       -0.02230000       1.93090000      -0.95370000
H       -0.92930000       1.83860000       0.58410000
H       -0.87270000      -2.65500000      -1.23510000
H        0.88220000      -2.52460000      -1.28590000
H       -0.86480000      -2.73650000       1.13670000
H        1.26210000      -3.09070000       2.40340000
H        2.18160000      -2.71190000       0.92490000
