18
Properties=species:S:1:pos:R:3 gdb_56988=T pbc="F F F"
N       -0.14350000       1.42180000       0.06020000
C        0.01000000      -0.02600000      -0.09420000
C        0.75990000      -0.41720000      -1.30950000
N        1.36640000      -0.68260000      -2.25790000
C        0.69000000      -0.60770000       1.15220000
C       -0.05720000      -0.55730000       2.50950000
N        0.14860000      -2.03400000       2.74180000
C       -0.57440000      -2.70110000       1.64860000
C        0.74870000      -2.12080000       1.34240000
H        0.77070000       1.86600000       0.07660000
H       -0.63830000       1.81140000      -0.73670000
H       -0.99470000      -0.45420000      -0.18200000
H        1.68740000      -0.16710000       1.24090000
H        0.45300000       0.02530000       3.27700000
H       -1.10970000      -0.25800000       2.47440000
H       -0.62060000      -3.77940000       1.76540000
H       -1.48950000      -2.25170000       1.26680000
H        1.61450000      -2.73920000       1.13220000
