19
Properties=species:S:1:pos:R:3 gdb_84696=T pbc="F F F"
O        0.12140000       1.40520000      -0.15360000
C        0.03820000      -0.01150000      -0.01800000
C        0.82300000      -0.49980000       1.17990000
C        0.31810000      -1.37360000       2.05180000
C       -1.09120000      -1.91030000       1.85760000
C       -1.39150000      -2.03040000       0.35920000
C       -1.41850000      -0.52460000       0.03290000
C       -2.19720000       0.02140000       1.25140000
O       -2.05180000      -0.94140000       2.30430000
H       -0.04310000       1.79430000       0.71200000
H        0.50300000      -0.39100000      -0.93880000
H        1.82050000      -0.08330000       1.29920000
H        0.88220000      -1.68920000       2.92450000
H       -1.26490000      -2.82070000       2.43460000
H       -0.63090000      -2.58320000      -0.19720000
H       -2.36660000      -2.49850000       0.19580000
H       -1.91980000      -0.28000000      -0.90600000
H       -1.82630000       1.00100000       1.58140000
H       -3.26560000       0.13290000       1.03370000
