23
Properties=species:S:1:pos:R:3 gdb_117987=T pbc="F F F"
C        0.08450000       1.34200000       0.09430000
O        0.00410000      -0.06350000       0.04520000
C       -1.32480000      -0.54680000      -0.08120000
C       -1.22890000      -2.06630000       0.01820000
O       -0.60690000      -2.43150000       1.23940000
C       -2.58860000      -2.79680000      -0.08680000
C       -2.35490000      -4.31090000      -0.04400000
C       -3.56040000      -2.36870000       1.01420000
O       -3.20480000      -2.42290000      -1.32610000
H        1.13920000       1.60690000       0.20220000
H       -0.30570000       1.80220000      -0.82620000
H       -0.47690000       1.75240000       0.94800000
H       -1.94630000      -0.14380000       0.73270000
H       -1.76930000      -0.24730000      -1.03950000
H       -0.61070000      -2.40560000      -0.83370000
H        0.12360000      -1.81050000       1.35270000
H       -1.89790000      -4.60720000       0.90260000
H       -3.30390000      -4.84010000      -0.16840000
H       -1.67740000      -4.62110000      -0.84970000
H       -3.89030000      -1.33780000       0.86180000
H       -4.44790000      -3.00710000       1.00170000
H       -3.07760000      -2.44630000       1.99050000
H       -2.71160000      -2.84470000      -2.03830000
