21
Properties=species:S:1:pos:R:3 gdb_107660=T pbc="F F F"
C        0.03340000       1.49900000       0.28550000
C       -0.06460000       0.04630000      -0.19370000
C       -1.44940000      -0.53740000      -0.03190000
C       -1.87830000      -1.11770000       1.29040000
C       -1.65100000      -2.02750000       0.08790000
C       -2.84720000      -2.62390000      -0.64600000
O       -3.36710000      -1.74140000      -1.63830000
C       -3.56920000      -0.46350000      -1.11940000
O       -2.36360000       0.19830000      -0.81300000
H        1.04260000       1.89280000       0.13260000
H       -0.66820000       2.13260000      -0.26260000
H       -0.20280000       1.57980000       1.35180000
H        0.21220000      -0.01590000      -1.25310000
H        0.64340000      -0.58230000       0.35850000
H       -1.15360000      -1.13760000       2.09740000
H       -2.90340000      -0.97620000       1.61810000
H       -0.75810000      -2.64430000       0.09890000
H       -2.55320000      -3.52890000      -1.18260000
H       -3.65000000      -2.89560000       0.05800000
H       -4.05250000       0.13450000      -1.89460000
H       -4.22050000      -0.51060000      -0.22630000
