23
Properties=species:S:1:pos:R:3 gdb_102589=T pbc="F F F"
C        0.00770000       1.55100000       0.15990000
C       -0.09130000       0.02450000       0.05390000
C       -1.52250000      -0.53320000      -0.08300000
C       -2.16150000      -0.10360000      -1.40550000
O       -3.48590000      -0.61770000      -1.46130000
C       -1.52200000      -2.05560000       0.05380000
C       -1.08560000      -2.68330000       1.39820000
O       -2.26090000      -3.51240000       1.44400000
C       -2.84460000      -2.80750000       0.32440000
H        1.04130000       1.86010000       0.34410000
H       -0.32350000       2.05360000      -0.75380000
H       -0.60390000       1.92910000       0.98660000
H        0.51380000      -0.32720000      -0.79330000
H        0.36370000      -0.41680000       0.94870000
H       -2.13610000      -0.11720000       0.72980000
H       -2.16950000       0.99310000      -1.48350000
H       -1.55290000      -0.48860000      -2.24160000
H       -3.87800000      -0.35590000      -2.29900000
H       -0.97520000      -2.49810000      -0.78640000
H       -0.16140000      -3.27310000       1.40510000
H       -1.05500000      -1.97070000       2.23720000
H       -3.67300000      -2.16060000       0.63430000
H       -3.19880000      -3.49020000      -0.45450000
