18
Properties=species:S:1:pos:R:3 gdb_74511=T pbc="F F F"
C        0.04020000       1.51870000       0.10210000
C       -0.00250000       0.02800000       0.00640000
C       -0.07190000      -0.73350000      -1.08800000
C       -0.04820000      -2.17560000      -0.72270000
C        1.19540000      -2.63740000      -0.00500000
N        0.02920000      -2.25960000       0.77120000
C        0.02750000      -0.85490000       1.24290000
C       -0.89000000      -3.17620000      -1.42700000
O       -1.43890000      -2.97580000      -2.48210000
H        0.97580000       1.86180000       0.56180000
H       -0.04540000       1.98710000      -0.88140000
H       -0.77390000       1.89630000       0.73380000
H       -0.14700000      -0.39330000      -2.11190000
H        1.44240000      -3.69580000       0.03820000
H        2.04590000      -1.96120000      -0.06310000
H        0.90440000      -0.67160000       1.87730000
H       -0.85800000      -0.69200000       1.87210000
H       -0.96370000      -4.15250000      -0.89840000
