16
Properties=species:S:1:pos:R:3 gdb_32173=T pbc="F F F"
O        0.30870000       0.79980000       1.03910000
C       -0.01170000       0.11760000      -0.15760000
C       -1.43590000      -0.38170000      -0.09960000
C       -2.17590000      -0.35460000       1.08630000
C       -3.47120000      -0.85100000       1.06350000
N       -4.05840000      -1.35920000      -0.02620000
C       -3.34040000      -1.37760000      -1.14400000
O       -3.92920000      -1.88810000      -2.24770000
C       -2.03140000      -0.90260000      -1.24160000
H        1.24190000       1.02790000       1.01420000
H        0.10220000       0.77170000      -1.03700000
H        0.65630000      -0.74520000      -0.31590000
H       -1.74540000       0.04850000       1.99210000
H       -4.07720000      -0.84360000       1.96620000
H       -4.81800000      -2.15130000      -1.97080000
H       -1.51390000      -0.94680000      -2.19350000
