20
Properties=species:S:1:pos:R:3 gdb_86120=T pbc="F F F"
C       -0.08490000       1.42970000      -0.17710000
N        0.02830000      -0.00480000       0.02270000
C       -1.21960000      -0.68800000       0.31800000
C       -1.11570000      -2.17140000       0.52660000
C       -2.41260000      -2.86790000       0.83160000
C        0.05480000      -2.79730000       0.44130000
C        1.34050000      -2.09780000       0.13770000
C        1.26120000      -0.59280000      -0.07810000
O        2.27310000       0.04160000      -0.33000000
H        0.90780000       1.82220000      -0.38960000
H       -0.75660000       1.65180000      -1.01620000
H       -0.48880000       1.91490000       0.72070000
H       -1.67350000      -0.22820000       1.21300000
H       -1.93640000      -0.48720000      -0.49720000
H       -3.14150000      -2.72860000       0.02280000
H       -2.26140000      -3.94100000       0.97040000
H       -2.87670000      -2.46880000       1.74260000
H        0.10340000      -3.87310000       0.59670000
H        2.07640000      -2.25720000       0.93700000
H        1.81540000      -2.51440000      -0.76050000
