23
Properties=species:S:1:pos:R:3 gdb_60258=T pbc="F F F"
C        0.10270000       1.50860000       0.19840000
C        0.00550000      -0.01080000       0.12060000
O        0.58060000      -0.52690000       1.30980000
C       -1.44800000      -0.49240000      -0.04440000
C       -1.53650000      -1.98110000      -0.35330000
O       -0.88690000      -2.80070000       0.66710000
C       -2.14310000      -3.39800000       1.05720000
C       -2.88020000      -2.73590000      -0.12710000
C       -4.16470000      -1.97030000       0.15360000
H        1.13930000       1.80410000       0.38180000
H       -0.23410000       1.97470000      -0.73280000
H       -0.50850000       1.88850000       1.02370000
H        0.58100000      -0.35160000      -0.76050000
H        0.32480000      -1.45900000       1.36500000
H       -1.98700000      -0.25300000       0.87950000
H       -1.93200000       0.05650000      -0.86270000
H       -1.07050000      -2.17810000      -1.32770000
H       -2.08630000      -4.49170000       1.06360000
H       -2.46910000      -3.05060000       2.04680000
H       -3.05080000      -3.45370000      -0.93430000
H       -4.04780000      -1.26070000       0.97780000
H       -4.49720000      -1.41170000      -0.72760000
H       -4.96860000      -2.66300000       0.42510000
