17
Properties=species:S:1:pos:R:3 gdb_27544=T pbc="F F F"
N        0.06090000       1.39080000      -0.25820000
C       -0.07880000       0.01870000      -0.11300000
C       -1.15090000      -0.82230000      -0.09310000
C       -0.60450000      -2.15670000      -0.02730000
C        0.74450000      -2.01030000      -0.00010000
O        1.08080000      -0.67630000      -0.05900000
C       -1.37500000      -3.41990000       0.02640000
C       -1.76580000      -4.12960000      -1.22390000
N       -0.75470000      -4.70910000      -0.32210000
H        0.89160000       1.74830000       0.19640000
H       -0.75900000       1.90170000       0.03770000
H       -2.19220000      -0.54590000      -0.13500000
H        1.57240000      -2.69160000       0.09210000
H       -2.06090000      -3.49820000       0.86860000
H       -2.70600000      -4.67210000      -1.26850000
H       -1.43560000      -3.70060000      -2.16570000
H        0.16790000      -4.54150000      -0.71670000
