21
Properties=species:S:1:pos:R:3 gdb_111068=T pbc="F F F"
O        0.01030000       1.51280000      -0.06950000
C        0.06830000       0.10360000       0.12520000
C       -1.31530000      -0.52460000       0.06740000
C       -2.04520000      -0.78940000      -1.29600000
C       -1.11020000      -2.01210000      -1.51990000
C       -1.53420000      -2.07320000      -0.01840000
C       -1.13680000      -3.10490000       0.99920000
O       -1.56510000      -4.37350000       0.52340000
C       -2.97940000      -1.75050000      -0.50820000
H       -0.37580000       1.66700000      -0.93780000
H        0.76750000      -0.36170000      -0.58320000
H        0.49240000      -0.03170000       1.12680000
H       -1.95150000      -0.02920000       0.81090000
H       -2.34990000      -0.04820000      -2.03730000
H       -1.50340000      -2.80940000      -2.15440000
H       -0.05950000      -1.82190000      -1.74470000
H       -0.04410000      -3.08060000       1.14560000
H       -1.60260000      -2.86040000       1.96840000
H       -1.31100000      -5.03800000       1.17030000
H       -3.65230000      -1.29390000       0.22340000
H       -3.47700000      -2.53230000      -1.08590000
