19
Properties=species:S:1:pos:R:3 gdb_22097=T pbc="F F F"
C        0.68990000       1.62980000       0.02560000
N        0.14390000       0.27410000       0.02240000
H       -1.60840000       0.36850000       1.29140000
C        0.37070000      -0.38850000      -1.25670000
C        0.62470000      -0.51300000       1.15810000
C       -0.10860000      -0.16170000       2.43690000
C        0.52240000      -0.33590000       3.74170000
O        0.01180000      -0.15890000       4.82520000
N       -1.35360000       0.26810000       2.29380000
O       -2.20040000       0.58580000       3.14710000
H        1.78210000       1.64150000      -0.13850000
H        0.21770000       2.21920000      -0.76520000
H        0.48430000       2.11450000       0.98340000
H        1.44240000      -0.52160000      -1.48880000
H       -0.10550000      -1.37310000      -1.25770000
H       -0.07550000       0.20750000      -2.05800000
H        0.47050000      -1.57300000       0.91720000
H        1.71090000      -0.39520000       1.32530000
H        1.58580000      -0.66050000       3.65240000
