18
Properties=species:S:1:pos:R:3 gdb_84666=T pbc="F F F"
C        0.44460000       1.39350000      -0.01070000
N       -0.17490000       0.06310000      -0.00070000
C       -0.27820000      -0.56760000      -1.24520000
N       -0.76200000      -1.68320000      -1.60040000
C       -1.40780000      -2.60470000      -0.74080000
C       -0.58310000      -3.60640000       0.04820000
C       -1.43930000      -2.58100000       0.77040000
N       -0.82940000      -1.63250000       1.62680000
C       -0.33050000      -0.52810000       1.25760000
H        1.54070000       1.34350000      -0.00730000
H        0.12210000       1.94190000      -0.89740000
H        0.11740000       1.95620000       0.86500000
H        0.16090000       0.05190000      -2.02880000
H       -2.29400000      -3.02580000      -1.21100000
H       -0.86980000      -4.65300000       0.05870000
H        0.48580000      -3.42330000       0.06760000
H       -2.34460000      -2.98770000       1.21620000
H        0.07550000       0.11580000       2.03920000
