17
Properties=species:S:1:pos:R:3 gdb_23015=T pbc="F F F"
C        0.62790000       1.36570000       0.03420000
C        0.00640000      -0.00380000       0.12390000
N       -0.42410000      -0.52830000       1.20540000
O       -0.22150000       0.30730000       2.30530000
C       -0.13180000      -0.79730000      -1.12870000
C        1.02340000      -1.60300000      -1.66900000
C       -0.23200000      -2.31060000      -1.18150000
C       -0.16640000      -3.16660000      -0.02740000
N       -0.10930000      -3.92980000       0.83970000
H        0.80450000       1.65500000      -1.00360000
H       -0.01550000       2.10780000       0.51550000
H        1.58320000       1.38580000       0.57000000
H       -0.57700000      -0.22120000       3.02840000
H       -0.73020000      -0.29900000      -1.88900000
H        1.21940000      -1.60050000      -2.73480000
H        1.89980000      -1.69820000      -1.03860000
H       -0.89280000      -2.69860000      -1.95020000
