19
Properties=species:S:1:pos:R:3 gdb_37941=T pbc="F F F"
C       -0.09850000       1.47130000       0.03740000
C        1.28490000       2.14350000      -0.03770000
C        1.98220000       1.99550000      -1.38170000
C        3.19750000       1.13490000      -1.56270000
O        3.15850000       0.02600000      -0.66370000
C        1.96070000      -0.49940000      -1.35530000
C        0.80440000      -0.87120000      -0.47690000
C       -0.07350000      -0.03730000       0.08670000
C        1.90910000       0.74510000      -2.24190000
H       -0.62060000       1.82920000       0.93300000
H       -0.71630000       1.80120000      -0.81110000
H        1.17280000       3.20970000       0.18720000
H        1.92090000       1.71440000       0.74270000
H        2.00420000       2.88950000      -2.00160000
H        4.16520000       1.45240000      -1.93380000
H        2.28240000      -1.37300000      -1.93380000
H        0.67350000      -1.93740000      -0.30580000
H       -0.87560000      -0.48760000       0.67000000
H        1.61950000       0.75540000      -3.28410000
