23
Properties=species:S:1:pos:R:3 gdb_59944=T pbc="F F F"
C       -0.91760000       0.77870000      -2.48580000
C        0.38180000       0.02140000      -2.77010000
O        1.34760000       0.90840000      -3.34170000
C        1.05280000      -0.55980000      -1.51460000
C        0.73030000      -2.03840000      -1.15690000
C        1.54080000      -2.41360000       0.10660000
C       -0.77280000      -2.26160000      -0.87130000
C        1.14270000      -2.91690000      -2.25880000
C        1.48120000      -3.64830000      -3.15170000
H       -1.67310000       0.13970000      -2.02120000
H       -0.71880000       1.62340000      -1.81790000
H       -1.34750000       1.17300000      -3.41460000
H        0.17960000      -0.80210000      -3.47230000
H        0.94400000       1.32670000      -4.10910000
H        2.13160000      -0.48430000      -1.67710000
H        0.81620000       0.06390000      -0.64350000
H        1.23770000      -1.78240000       0.94880000
H        1.37060000      -3.45850000       0.38000000
H        2.61240000      -2.27480000      -0.06020000
H       -1.38210000      -2.09610000      -1.76270000
H       -0.94710000      -3.28880000      -0.53850000
H       -1.11450000      -1.58260000      -0.08280000
H        1.78470000      -4.28960000      -3.94170000
