17
Properties=species:S:1:pos:R:3 gdb_73890=T pbc="F F F"
C        0.07500000       1.49610000       0.11050000
C        0.01080000       0.00870000      -0.01170000
C        0.00200000      -0.75320000      -1.13050000
C       -0.03160000      -0.29940000      -2.51900000
O       -0.07500000      -1.05110000      -3.47070000
C        0.03410000      -2.20550000      -0.77150000
O        1.21960000      -2.56900000      -0.02730000
C        0.02540000      -2.28080000       0.69780000
C       -0.03100000      -0.85810000       1.23610000
H        0.99790000       1.79380000       0.62420000
H        0.04400000       2.00800000      -0.85230000
H       -0.75440000       1.86650000       0.72560000
H       -0.02930000       0.80120000      -2.66930000
H       -0.35070000      -2.96330000      -1.44350000
H       -0.40170000      -3.10780000       1.25770000
H        0.80420000      -0.63930000       1.91280000
H       -0.95380000      -0.67420000       1.80290000
