20
Properties=species:S:1:pos:R:3 gdb_75882=T pbc="F F F"
C        0.33270000       1.42380000       0.07490000
C       -0.04190000      -0.06420000      -0.00680000
C       -1.55890000      -0.24330000      -0.08050000
C        0.68820000      -0.74790000      -1.18360000
O        2.02170000      -1.05590000      -0.70650000
C        2.01770000      -1.05640000       0.64690000
N        3.01400000      -1.16040000       1.41510000
C        0.60720000      -0.85290000       1.15710000
O        0.57030000      -0.23230000       2.41020000
H        1.41730000       1.56930000       0.05100000
H       -0.10160000       1.97340000      -0.76630000
H       -0.03810000       1.85650000       1.00630000
H       -1.97480000       0.25150000      -0.96510000
H       -1.83490000      -1.30240000      -0.12380000
H       -2.03710000       0.19390000       0.80120000
H        0.19940000      -1.68350000      -1.48140000
H        0.79450000      -0.10810000      -2.06250000
H        3.89240000      -1.25340000       0.90600000
H        0.12330000      -1.84560000       1.20740000
H        1.46270000      -0.33410000       2.77550000
