23
Properties=species:S:1:pos:R:3 gdb_120040=T pbc="F F F"
C       -0.08590000       1.42000000       0.12750000
O       -0.08850000       0.01650000       0.02400000
C        0.75740000      -0.46120000      -1.00260000
C        0.65850000      -1.97550000      -1.01890000
C       -0.61830000      -2.60820000      -1.63800000
C       -1.81510000      -1.76080000      -2.01710000
O        0.13360000      -3.06410000      -2.79090000
C        1.39100000      -2.72850000      -2.16290000
C        2.33770000      -2.01020000      -3.10600000
H        0.91860000       1.81110000       0.35500000
H       -0.43700000       1.90000000      -0.79990000
H       -0.76200000       1.69040000       0.94220000
H        0.46610000      -0.02280000      -1.97030000
H        1.80060000      -0.15320000      -0.81370000
H        0.89190000      -2.33960000      -0.01570000
H       -0.95650000      -3.47120000      -1.04500000
H       -1.52300000      -0.91080000      -2.63950000
H       -2.52920000      -2.36400000      -2.58680000
H       -2.31150000      -1.38260000      -1.11920000
H        1.88130000      -3.63920000      -1.78550000
H        1.89310000      -1.09580000      -3.50720000
H        3.27460000      -1.75650000      -2.59840000
H        2.57800000      -2.66470000      -3.94990000
