13
Properties=species:S:1:pos:R:3 gdb_2629=T pbc="F F F"
O       -0.12520000      -0.03890000       0.21570000
C        0.01240000       1.10310000      -0.13180000
C        1.35290000       1.82190000      -0.17830000
N        1.35320000       2.83650000      -1.22180000
C        2.51940000       3.71190000      -1.17360000
C        2.47570000       4.70180000      -2.25360000
N        2.45390000       5.46690000      -3.11820000
H       -0.84580000       1.74130000      -0.43830000
H        1.46460000       2.33000000       0.79190000
H        2.15830000       1.07260000      -0.24170000
H        1.29550000       2.40220000      -2.13740000
H        2.51830000       4.24540000      -0.21490000
H        3.48680000       3.18250000      -1.23680000
