19
Properties=species:S:1:pos:R:3 gdb_94408=T pbc="F F F"
C       -0.27960000       1.43570000      -0.16350000
C        0.20790000       0.00300000      -0.13030000
O        1.50660000      -0.15400000      -0.74810000
C        2.03900000      -0.78450000       0.42760000
C        0.72330000      -0.58800000       1.21330000
C        0.65980000       0.12980000       2.59100000
C        0.00110000      -1.12800000       3.24100000
C        0.02260000      -1.79010000       1.85400000
O       -0.36920000      -2.83240000       1.41310000
H        0.42450000       2.10740000       0.33630000
H       -0.38290000       1.76170000      -1.20320000
H       -1.25880000       1.52590000       0.31920000
H       -0.52230000      -0.66670000      -0.60550000
H        2.30930000      -1.83290000       0.24880000
H        2.90490000      -0.24600000       0.83310000
H        1.63590000       0.39800000       3.00110000
H        0.02470000       1.01780000       2.60190000
H        0.61310000      -1.65240000       3.98110000
H       -1.00000000      -0.99380000       3.66060000
