14
Properties=species:S:1:pos:R:3 gdb_129714=T pbc="F F F"
N        0.10680000       1.42800000      -0.11910000
C       -0.01760000       0.03770000      -0.03480000
C       -1.12180000      -0.77500000      -0.06450000
O       -2.40410000      -0.31220000      -0.10060000
C       -0.61440000      -2.10200000      -0.01390000
N        0.70280000      -2.12920000       0.04740000
N        1.07570000      -0.81630000       0.02010000
C        2.42160000      -0.43080000      -0.01250000
O        3.35140000      -1.18350000       0.05490000
H        0.39970000       1.85980000       0.75200000
H       -0.77870000       1.83700000      -0.39530000
H       -2.99330000      -1.02940000      -0.35210000
H       -1.17320000      -3.02860000      -0.00900000
H        2.50440000       0.66370000      -0.11940000
