19
Properties=species:S:1:pos:R:3 gdb_17798=T pbc="F F F"
C       -0.05610000       1.58320000       0.03840000
C        1.48800000       1.48880000       0.01470000
N        1.37530000       0.07620000       0.44320000
C       -0.03540000       0.03670000      -0.00400000
C        2.29660000      -0.88330000      -0.10270000
C        3.71170000      -0.87450000       0.51690000
O        3.56960000      -2.23280000       0.97910000
C        2.21210000      -2.30380000       0.49850000
H       -0.43870000       1.97240000       0.98340000
H       -0.53830000       2.09970000      -0.79150000
H        1.88980000       1.59670000      -1.00700000
H        2.06250000       2.13220000       0.68860000
H       -0.71420000      -0.51440000       0.65460000
H       -0.14930000      -0.34690000      -1.03200000
H        2.30420000      -0.87700000      -1.20800000
H        4.54950000      -0.76490000      -0.18180000
H        3.82830000      -0.16490000       1.34550000
H        1.48720000      -2.39640000       1.31670000
H        2.07150000      -3.12680000      -0.21220000
