19
Properties=species:S:1:pos:R:3 gdb_88137=T pbc="F F F"
C       -0.16960000       1.40780000      -0.11180000
N        0.05920000      -0.01960000       0.04300000
C        1.42140000      -0.49530000      -0.14520000
C        0.82050000      -0.48850000       1.21460000
C        1.27280000       0.37800000       2.38300000
C        0.52590000      -0.22340000       3.60000000
N        0.24290000      -1.58170000       3.16900000
C        0.30090000      -1.78440000       1.81520000
O        0.00630000      -2.79830000       1.22360000
H        0.69110000       2.04370000       0.15530000
H       -0.41520000       1.60330000      -1.16020000
H       -1.02700000       1.71230000       0.49740000
H        1.52080000      -1.44290000      -0.66760000
H        2.19820000       0.24350000      -0.34520000
H        2.35300000       0.27960000       2.52720000
H        1.05260000       1.43940000       2.25780000
H        1.14270000      -0.21280000       4.50390000
H       -0.39640000       0.33290000       3.81860000
H       -0.19060000      -2.27000000       3.76340000
