16
Properties=species:S:1:pos:R:3 gdb_12763=T pbc="F F F"
C        0.05970000       1.44870000      -0.31240000
C        0.05560000      -0.02020000      -0.01580000
C       -0.93530000      -0.71520000       0.90860000
C        0.53280000      -0.85220000       1.15530000
O        1.09230000      -1.86840000       0.31130000
C        0.77420000      -1.08900000      -0.86420000
C       -0.05340000      -1.81850000      -1.89900000
O       -0.15240000      -1.44380000      -3.03960000
H        1.06320000       1.80040000      -0.57520000
H       -0.60760000       1.68360000      -1.14940000
H       -0.28310000       2.02220000       0.55450000
H       -1.45500000      -0.02980000       1.57210000
H       -1.51730000      -1.57920000       0.60380000
H        1.05940000      -0.60790000       2.07040000
H        1.68230000      -0.69280000      -1.33430000
H       -0.59040000      -2.71520000      -1.51910000
