21
Properties=species:S:1:pos:R:3 gdb_101798=T pbc="F F F"
C        0.06140000       1.47060000       0.14590000
O        0.17450000       0.07670000      -0.02680000
C        0.68370000      -0.63290000       1.10280000
C       -0.35930000      -0.78410000       2.21000000
C        1.13920000      -1.98750000       0.56770000
N        2.11810000      -1.81590000      -0.48560000
C        3.09940000      -2.75180000      -0.70200000
N        3.83090000      -2.54160000      -1.86910000
O        3.30980000      -3.69470000       0.04010000
H        1.01960000       1.92150000       0.44840000
H       -0.23700000       1.89130000      -0.81790000
H       -0.69790000       1.74460000       0.89190000
H        1.56450000      -0.09500000       1.49050000
H       -1.24290000      -1.30850000       1.83320000
H        0.05440000      -1.35630000       3.04630000
H       -0.67700000       0.18680000       2.59920000
H        1.60510000      -2.58040000       1.35670000
H        0.25750000      -2.54190000       0.21240000
H        1.83600000      -1.20830000      -1.23830000
H        3.95040000      -1.58760000      -2.17640000
H        4.68360000      -3.08070000      -1.88210000
