18
Properties=species:S:1:pos:R:3 gdb_80492=T pbc="F F F"
C       -0.06250000       1.56120000      -0.04870000
C        0.08250000       0.05540000       0.03190000
C        1.32550000      -0.73220000      -0.23270000
C        2.58500000      -0.02170000       0.27440000
C        2.01410000      -0.04940000       1.71750000
O        1.95760000       1.20730000       2.34270000
C        0.70660000      -0.69850000       1.19740000
C        0.00470000      -1.71770000       1.90280000
N       -0.55050000      -2.53780000       2.50450000
H        0.78430000       2.08750000       0.38920000
H       -0.17210000       1.87080000      -1.09390000
H       -0.96100000       1.88040000       0.48900000
H       -0.79880000      -0.47650000      -0.32200000
H        1.32680000      -1.58600000      -0.89840000
H        3.49490000      -0.61460000       0.17380000
H        2.76550000       0.97600000      -0.13150000
H        2.55310000      -0.77730000       2.33630000
H        1.56660000       1.10030000       3.21650000
