17
Properties=species:S:1:pos:R:3 gdb_39032=T pbc="F F F"
C        0.11940000       1.37000000      -0.40500000
C        1.39830000       2.00140000       0.23690000
C        2.12600000       0.77700000       0.73480000
O        3.33160000       0.27460000       0.13930000
C        3.23680000       0.33600000       1.57920000
C        2.78310000      -1.00570000       2.17680000
N        1.43450000      -1.30750000       1.63510000
C        1.11050000      -0.30320000       0.91300000
N       -0.02580000       0.07960000       0.27430000
H       -0.76480000       1.99500000      -0.24670000
H        0.25070000       1.24390000      -1.48840000
H        1.98230000       2.57990000      -0.48000000
H        1.11570000       2.65550000       1.06710000
H        3.94810000       0.99240000       2.07160000
H        3.48980000      -1.80540000       1.92510000
H        2.73400000      -0.94670000       3.27200000
H       -0.85440000      -0.48630000       0.21230000
