15
Properties=species:S:1:pos:R:3 gdb_43482=T pbc="F F F"
N       -0.10570000       1.23630000       0.28810000
C       -0.00100000       0.00070000       0.03270000
N        1.13940000      -0.78560000      -0.15160000
C        0.91090000      -2.09960000      -0.54740000
O        1.76860000      -2.91180000      -0.78660000
C       -0.60030000      -2.28530000      -0.59680000
C       -1.20560000      -2.84090000       0.71280000
O       -1.59620000      -1.51530000       1.13430000
C       -1.18460000      -0.93900000      -0.12810000
H        0.80380000       1.69040000       0.39430000
H        2.08240000      -0.43780000      -0.05040000
H       -0.92030000      -2.73940000      -1.53270000
H       -2.07560000      -3.48990000       0.56160000
H       -0.51110000      -3.31890000       1.41150000
H       -2.01340000      -0.47160000      -0.66370000
