17
Properties=species:S:1:pos:R:3 gdb_109372=T pbc="F F F"
O        0.01630000       1.41240000      -0.03310000
C       -0.00530000      -0.00190000      -0.08870000
C       -1.42930000      -0.48040000      -0.02830000
C       -2.49000000       0.33270000       0.06770000
C       -3.89660000      -0.18520000       0.07920000
O       -4.01230000      -1.49500000      -0.43510000
C       -3.09080000      -2.39810000       0.13860000
C       -1.63950000      -1.94210000      -0.00110000
O       -0.72150000      -2.73940000      -0.01490000
H        0.93260000       1.69820000      -0.07660000
H        0.45630000      -0.38330000      -1.01310000
H        0.55750000      -0.45490000       0.74210000
H       -2.34480000       1.40620000       0.14310000
H       -4.30250000      -0.12760000       1.10850000
H       -4.53770000       0.44630000      -0.54560000
H       -3.29460000      -2.55380000       1.21460000
H       -3.21320000      -3.35840000      -0.36680000
