17
Properties=species:S:1:pos:R:3 gdb_52127=T pbc="F F F"
N       -0.24000000       0.66710000      -0.97120000
C       -0.65090000      -0.19100000      -0.14430000
O       -0.31840000      -1.49260000      -0.31360000
C       -0.87270000      -2.40430000       0.63450000
C       -2.31570000      -2.70080000       0.34160000
N       -3.29950000      -2.27770000       1.02520000
C       -4.51040000      -2.79410000       0.36400000
C       -3.98390000      -3.54100000      -0.88960000
O       -2.54390000      -3.46190000      -0.75620000
H       -0.55750000       1.59370000      -0.69420000
H       -1.27220000      -0.00890000       0.74180000
H       -0.27590000      -3.31440000       0.54760000
H       -0.79960000      -2.01450000       1.65400000
H       -5.05280000      -3.45140000       1.05190000
H       -5.17910000      -1.96610000       0.11020000
H       -4.26450000      -4.59610000      -0.92900000
H       -4.26410000      -3.06200000      -1.83190000
