20
Properties=species:S:1:pos:R:3 gdb_78884=T pbc="F F F"
C        0.10880000       1.60740000      -0.03120000
C        0.03970000       0.07910000       0.01040000
C        0.82870000      -0.61690000      -1.08140000
C        2.27170000      -0.84690000      -0.64130000
C        1.27030000      -1.96780000      -0.59470000
N        1.19470000      -1.93900000       0.91720000
C        2.17400000      -0.79850000       0.89040000
C        0.74310000      -0.53820000       1.21230000
C        0.26840000      -0.29660000       2.61900000
H        1.14880000       1.94980000      -0.01900000
H       -0.36370000       1.99620000      -0.93890000
H       -0.40630000       2.05440000       0.82530000
H       -1.00970000      -0.24400000      -0.01190000
H        0.61810000      -0.46800000      -2.13360000
H        3.14600000      -0.69860000      -1.25850000
H        1.19250000      -2.90700000      -1.12560000
H        2.99750000      -0.74180000       1.59360000
H        0.32510000       0.76600000       2.87850000
H       -0.77030000      -0.62230000       2.74050000
H        0.87920000      -0.85610000       3.33200000
