12
Properties=species:S:1:pos:R:3 gdb_133410=T pbc="F F F"
F        0.05300000       0.02430000       0.00240000
C       -0.04760000       1.34430000       0.01110000
C       -1.22640000       1.98870000       0.03030000
C       -1.26360000       3.44440000       0.03890000
N       -2.37030000       4.09030000       0.05720000
N        0.01820000       4.01800000       0.02520000
N        1.20730000       3.38210000       0.00600000
C        1.17680000       2.10430000      -0.00080000
F        2.32190000       1.44180000      -0.01950000
H       -2.16980000       1.45990000       0.03980000
H       -2.22400000       5.10070000       0.06100000
H        0.10040000       5.02330000       0.02990000
