25
Properties=species:S:1:pos:R:3 gdb_105517=T pbc="F F F"
C       -1.72370000       0.19960000      -0.62150000
C       -0.21420000       0.21480000      -0.34990000
C        0.68520000      -0.53600000      -1.34110000
C        0.76230000       0.10240000      -2.75710000
C        2.20760000       0.46480000      -2.37440000
O        2.07390000      -0.13900000      -1.07510000
C        0.62910000      -2.07920000      -1.34070000
C        0.96760000      -2.65910000       0.03920000
C       -0.66390000      -2.68480000      -1.90720000
H       -1.95090000       0.46990000      -1.65870000
H       -2.17680000      -0.77460000      -0.42650000
H       -2.22680000       0.92700000       0.02310000
H        0.13530000       1.25370000      -0.35870000
H       -0.01040000      -0.15510000       0.66120000
H        0.65860000      -0.59630000      -3.58910000
H        0.09540000       0.95110000      -2.91980000
H        2.99310000      -0.01460000      -2.97210000
H        2.42800000       1.53760000      -2.30730000
H        1.44310000      -2.37010000      -2.01870000
H        0.16140000      -2.48410000       0.76030000
H        1.11750000      -3.74170000      -0.02590000
H        1.88380000      -2.20940000       0.43030000
H       -1.49560000      -2.61840000      -1.20090000
H       -0.97420000      -2.19980000      -2.83860000
H       -0.51200000      -3.74720000      -2.12450000
