18
Properties=species:S:1:pos:R:3 gdb_77453=T pbc="F F F"
C        0.03920000       1.58980000      -0.00820000
C        0.11840000       0.08020000      -0.01650000
C        0.70490000      -0.75020000      -1.12050000
C        0.06930000      -1.79670000      -1.96920000
O        1.83730000      -0.01650000      -1.69610000
C        2.53510000      -0.12020000      -0.49310000
N        3.71430000       0.18570000      -0.20290000
C        1.38840000      -0.75990000       0.23000000
O        1.46890000      -1.76910000       1.15760000
H        0.87700000       2.03180000      -0.55120000
H       -0.88610000       1.92880000      -0.48610000
H        0.04840000       1.97860000       1.01510000
H       -0.72450000      -0.43110000       0.44860000
H       -0.46700000      -1.34530000      -2.81060000
H        0.82320000      -2.48190000      -2.36760000
H       -0.64710000      -2.37210000      -1.37650000
H        4.20580000       0.57690000      -1.00850000
H        1.60490000      -1.37590000       2.02710000
