20
Properties=species:S:1:pos:R:3 gdb_117214=T pbc="F F F"
C        0.05990000       1.38130000       0.47380000
C        0.08880000      -0.05700000       0.01310000
C        1.38900000      -0.81410000      -0.08020000
N        0.40370000      -1.12520000       0.93330000
C        0.51950000      -1.03280000       2.31230000
O       -0.30070000      -0.44730000       2.99050000
C        1.69060000      -1.80310000       2.89960000
C        1.58250000      -1.95690000       4.40990000
O        2.74550000      -2.64850000       4.84340000
H        0.91980000       1.61490000       1.10810000
H        0.07790000       2.05120000      -0.39180000
H       -0.84340000       1.58270000       1.05490000
H       -0.68380000      -0.32150000      -0.70790000
H        1.53990000      -1.56430000      -0.85250000
H        2.29040000      -0.28800000       0.22890000
H        1.76450000      -2.78460000       2.41930000
H        2.62430000      -1.27880000       2.65690000
H        1.49810000      -0.96530000       4.87420000
H        0.66460000      -2.50860000       4.65990000
H        2.69370000      -2.74550000       5.79850000
