21
Properties=species:S:1:pos:R:3 gdb_86088=T pbc="F F F"
C        0.01340000       1.60090000      -0.08350000
C        0.11970000       0.08170000       0.02030000
C        0.84450000      -0.60400000      -1.16650000
C        1.58360000      -1.77040000      -0.53990000
C        2.23470000      -2.82370000      -1.37710000
C        1.58150000      -1.67560000       0.79290000
C        0.85240000      -0.46820000       1.25580000
C        1.27500000       0.32630000       2.42280000
O        0.12710000      -0.52170000       2.49560000
H        1.00340000       2.06800000      -0.13110000
H       -0.53570000       1.89030000      -0.98550000
H       -0.52110000       2.02000000       0.77500000
H       -0.89370000      -0.33430000       0.08140000
H        0.15270000      -0.92170000      -1.95630000
H        1.55740000       0.08360000      -1.64520000
H        2.98090000      -2.38660000      -2.05330000
H        2.73180000      -3.58030000      -0.76440000
H        1.49820000      -3.32860000      -2.01520000
H        2.06110000      -2.36080000       1.48300000
H        2.13500000       0.00340000       3.01040000
H        1.07300000       1.39580000       2.45860000
