18
Properties=species:S:1:pos:R:3 gdb_39164=T pbc="F F F"
C       -0.02220000       1.41290000      -0.05020000
C        1.46520000       1.91540000       0.02460000
C        2.20670000       0.70740000      -0.50720000
N        3.13980000       0.69360000      -1.64250000
C        3.52950000       0.03050000      -0.39500000
C        3.24930000      -1.47330000      -0.28860000
N        1.82210000      -1.59420000      -0.63800000
C        1.19810000      -0.38440000      -0.43990000
N       -0.00440000      -0.06440000      -0.16790000
H       -0.59110000       1.69660000       0.84070000
H       -0.54780000       1.84610000      -0.91110000
H        1.65170000       2.80890000      -0.57390000
H        1.74230000       2.13510000       1.06020000
H        2.85260000       0.01360000      -2.34570000
H        4.39500000       0.43770000       0.11660000
H        3.87210000      -2.06700000      -0.96900000
H        3.45210000      -1.81310000       0.73720000
H        1.32920000      -2.44410000      -0.41140000
