19
Properties=species:S:1:pos:R:3 gdb_106484=T pbc="F F F"
O        0.06320000       1.39390000      -0.05700000
C        0.05650000      -0.02070000      -0.00590000
C       -1.34990000      -0.57510000      -0.03500000
C       -2.30540000      -0.54710000      -1.28460000
C       -3.09480000      -1.61400000      -0.47340000
C       -1.71240000      -2.09940000       0.04920000
C       -3.61560000      -0.78880000       0.72070000
C       -2.31240000      -0.02180000       1.00650000
O       -2.09660000       0.83410000       1.83040000
H       -0.42100000       1.68800000       0.72630000
H        0.62640000      -0.37230000      -0.87300000
H        0.57080000      -0.39710000       0.89450000
H       -2.80110000       0.39410000      -1.53590000
H       -1.80960000      -0.96090000      -2.16580000
H       -3.79400000      -2.29710000      -0.95310000
H       -1.15920000      -2.68050000      -0.69270000
H       -1.66480000      -2.59070000       1.02580000
H       -4.43210000      -0.10340000       0.47300000
H       -3.92290000      -1.39120000       1.58150000
