19
Properties=species:S:1:pos:R:3 gdb_83755=T pbc="F F F"
C       -0.03680000       1.51840000       0.05240000
C       -0.01980000       0.01990000      -0.03790000
C       -0.92820000      -0.85680000       0.80490000
C       -1.51040000      -2.12910000       0.21530000
O       -0.38830000      -2.84210000      -0.33710000
C        0.75660000      -1.98530000      -0.24890000
C        0.55770000      -1.02410000       0.93370000
C        0.55340000      -0.78410000      -1.21820000
O       -0.21360000      -1.01950000      -2.36910000
H        0.93760000       1.94010000      -0.21950000
H       -0.78360000       1.94250000      -0.62810000
H       -0.27870000       1.85830000       1.06510000
H       -1.47290000      -0.35430000       1.59660000
H       -1.97830000      -2.75260000       0.98720000
H       -2.25040000      -1.93650000      -0.57130000
H        1.65210000      -2.59740000      -0.33930000
H        1.14640000      -0.92070000       1.83470000
H        1.51340000      -0.34480000      -1.51670000
H       -0.61690000      -1.88850000      -2.23570000
