19
Properties=species:S:1:pos:R:3 gdb_89695=T pbc="F F F"
C       -0.13800000       1.51200000      -0.00670000
C        0.07510000       0.00400000       0.04700000
N        1.00550000      -0.48180000      -1.03260000
C        1.97200000      -1.26660000      -0.22710000
C        1.10340000      -2.00900000       0.84120000
C        0.82830000      -0.54050000       1.28160000
C        2.31400000      -0.25480000       0.90320000
C        2.98850000      -1.94460000      -1.00580000
N        3.79760000      -2.51090000      -1.60620000
H        0.80420000       2.05650000       0.09750000
H       -0.58030000       1.79880000      -0.96540000
H       -0.81680000       1.83360000       0.79090000
H       -0.90040000      -0.49260000      -0.03500000
H        0.51690000      -1.09760000      -1.67600000
H        0.26800000      -2.60790000       0.46840000
H        1.69600000      -2.57430000       1.56230000
H        0.42450000      -0.29730000       2.26290000
H        3.02060000      -0.65970000       1.62750000
H        2.60420000       0.74620000       0.58370000
