18
Properties=species:S:1:pos:R:3 gdb_9411=T pbc="F F F"
O       -0.01580000       1.44890000      -0.01450000
C        0.05320000       0.03190000      -0.00780000
C       -1.37240000      -0.50370000      -0.01680000
C       -1.42800000      -2.03280000       0.01830000
C       -2.87230000      -2.55980000      -0.07090000
O       -3.49220000      -2.16710000      -1.26470000
C       -2.89260000      -4.06810000       0.06060000
O       -3.37900000      -4.77690000      -0.78740000
H        0.88120000       1.79450000      -0.03530000
H        0.59690000      -0.34670000      -0.88910000
H        0.58690000      -0.33710000       0.88460000
H       -1.90700000      -0.08880000       0.84680000
H       -1.88490000      -0.14130000      -0.91280000
H       -0.85910000      -2.45100000      -0.82200000
H       -0.96660000      -2.40870000       0.94190000
H       -3.43230000      -2.16510000       0.79860000
H       -3.77550000      -2.98930000      -1.69500000
H       -2.43160000      -4.48840000       0.97830000
