18
Properties=species:S:1:pos:R:3 gdb_70026=T pbc="F F F"
C       -0.13910000       1.49380000       0.06970000
C        0.09770000       0.01940000      -0.02450000
N       -0.81660000      -0.97180000       0.58240000
C        0.61450000      -0.97990000       0.97210000
C        1.36590000      -1.75210000      -0.13140000
O        0.89240000      -3.00490000      -0.56120000
C       -0.09930000      -2.78110000      -1.55490000
O        0.10200000      -1.48370000      -2.10310000
C        0.83150000      -0.73000000      -1.16860000
H        0.75990000       2.05620000      -0.20430000
H       -0.94580000       1.80660000      -0.60340000
H       -0.41940000       1.78560000       1.08810000
H       -1.32570000      -0.49370000       1.32570000
H        0.91030000      -0.84280000       2.00550000
H        2.44690000      -1.79920000       0.01570000
H        0.03610000      -3.51980000      -2.35410000
H       -1.09830000      -2.85200000      -1.11330000
H        1.56830000      -0.11270000      -1.68870000
