20
Properties=species:S:1:pos:R:3 gdb_96855=T pbc="F F F"
C        0.00760000       1.41190000       0.26890000
N       -0.04490000      -0.03860000       0.38070000
C       -1.06870000      -0.64710000      -0.00210000
O       -2.25710000      -0.18110000      -0.55540000
C       -2.80300000      -1.54650000      -0.64650000
C       -3.15880000      -1.91910000      -2.06800000
C       -1.49560000      -2.07050000      -0.04570000
C       -0.65650000      -3.26530000      -0.40280000
C       -1.23360000      -3.13410000       0.98120000
H        0.87340000       1.69510000      -0.34020000
H       -0.89140000       1.86040000      -0.17040000
H        0.16370000       1.84460000       1.26370000
H       -3.66810000      -1.62980000       0.02050000
H       -2.28790000      -1.82900000      -2.72320000
H       -3.52180000      -2.95180000      -2.10990000
H       -3.95130000      -1.26690000      -2.44710000
H       -1.08940000      -4.00310000      -1.07040000
H        0.40520000      -3.09120000      -0.53740000
H       -0.56690000      -2.87050000       1.79480000
H       -2.05970000      -3.78240000       1.25470000
