20
Properties=species:S:1:pos:R:3 gdb_50629=T pbc="F F F"
O       -0.07690000      -0.03780000       0.22230000
C       -0.01010000       1.17140000       0.13850000
N        1.13200000       1.89400000      -0.04490000
C        2.40560000       1.20370000      -0.19360000
C        3.32290000       1.30770000       1.03390000
C        3.83890000       2.68870000       1.36350000
C        3.15420000       3.83340000       1.40110000
C        1.68230000       4.04460000       1.13310000
C        1.10730000       3.34370000      -0.10840000
H       -0.90240000       1.82620000       0.19900000
H        2.16530000       0.15530000      -0.38040000
H        2.92090000       1.60980000      -1.07350000
H        2.78690000       0.89300000       1.89940000
H        4.17550000       0.64110000       0.86300000
H        4.89280000       2.73600000       1.62970000
H        3.69910000       4.72780000       1.69550000
H        1.09740000       3.72520000       2.00830000
H        1.49200000       5.11800000       1.01980000
H        1.65840000       3.66950000      -1.00050000
H        0.06510000       3.65400000      -0.23860000
