17
Properties=species:S:1:pos:R:3 gdb_23442=T pbc="F F F"
O       -0.03740000       1.40320000       0.57470000
N        0.07190000      -0.00050000       0.59740000
C       -0.93780000      -0.53980000       0.06480000
C       -2.25290000      -0.11120000      -0.54470000
N       -2.69060000      -1.54050000      -0.53970000
C       -2.99210000      -2.12180000      -1.85940000
C       -1.69060000      -2.74430000      -2.31540000
C       -0.76020000      -2.67560000      -1.36570000
C       -1.31010000      -1.99600000      -0.13640000
H        0.77190000       1.67720000       1.01960000
H       -2.87330000       0.55130000       0.06750000
H       -2.14930000       0.33170000      -1.54590000
H       -3.79220000      -2.87330000      -1.79000000
H       -3.35710000      -1.34360000      -2.54360000
H       -1.56870000      -3.20840000      -3.28750000
H        0.24980000      -3.06190000      -1.41970000
H       -1.26530000      -2.62620000       0.76060000
