21
Properties=species:S:1:pos:R:3 gdb_75542=T pbc="F F F"
C       -0.06200000       1.53380000       0.03340000
C        0.02340000       0.03240000       0.00040000
C       -0.05020000      -0.66540000      -1.13550000
C       -0.06850000      -2.16720000      -1.18010000
O       -0.31470000      -2.74640000       0.08990000
C        0.51480000      -2.16530000       1.08140000
C        0.10450000      -0.70860000       1.33590000
C        1.06480000      -0.06270000       2.33240000
O       -1.18800000      -0.68340000       1.95820000
H        0.86170000       1.98970000       0.40840000
H       -0.25840000       1.94020000      -0.96230000
H       -0.86950000       1.85320000       0.70200000
H       -0.12090000      -0.15440000      -2.09380000
H       -0.86810000      -2.52250000      -1.84030000
H        0.88210000      -2.55340000      -1.59420000
H        0.36770000      -2.74810000       1.99490000
H        1.57510000      -2.22560000       0.78600000
H        2.06910000       0.03170000       1.90870000
H        0.71180000       0.92970000       2.62090000
H        1.12200000      -0.67310000       3.23870000
H       -1.75760000      -1.22460000       1.39710000
