15
Properties=species:S:1:pos:R:3 gdb_44312=T pbc="F F F"
O        0.04840000       0.07350000      -0.18670000
C        0.04010000       1.25960000      -0.02050000
C       -1.18980000       2.23110000       0.04970000
C       -0.50480000       3.60640000       0.27960000
C        0.74520000       3.57670000      -0.62830000
C        1.81380000       3.89770000       0.44490000
O        2.52040000       2.58190000       0.29810000
C        1.11680000       2.28380000       0.18100000
C        0.64330000       3.31010000       1.27040000
H       -1.75910000       2.17450000      -0.88350000
H       -1.85320000       1.92890000       0.86610000
H       -1.14390000       4.48480000       0.36860000
H        0.83450000       3.67350000      -1.70980000
H        2.45550000       4.76370000       0.60090000
H        0.61710000       3.10500000       2.34010000
