15
Properties=species:S:1:pos:R:3 gdb_74255=T pbc="F F F"
N        0.05700000       1.33290000      -0.08400000
C       -0.02680000      -0.02100000      -0.03660000
N       -1.11380000      -0.70080000      -0.10830000
C       -0.73020000      -2.11680000      -0.06360000
C       -1.29480000      -2.87630000      -1.19060000
N       -1.71590000      -3.48780000      -2.07590000
C        0.81300000      -2.12490000      -0.04730000
C        1.50920000      -1.46750000      -1.17370000
N        1.22580000      -0.71390000       0.08080000
H        0.89010000       1.74840000       0.29780000
H       -0.80330000       1.84320000       0.03460000
H       -1.11210000      -2.57610000       0.85800000
H        1.32740000      -2.84680000       0.57610000
H        2.56120000      -1.66830000      -1.34550000
H        0.93060000      -1.20410000      -2.05440000
