15
Properties=species:S:1:pos:R:3 gdb_65877=T pbc="F F F"
C       -0.16860000       1.50950000      -0.02310000
C        0.07500000       0.01990000      -0.04820000
O        0.88760000      -0.34940000      -1.16200000
C        1.94300000      -1.17810000      -0.71720000
C        1.85640000      -1.16010000       0.80080000
O        2.57240000      -1.67100000       1.60390000
O        0.76160000      -0.41360000       1.12670000
C       -1.21340000      -0.82020000      -0.14720000
O       -2.31120000      -0.36190000      -0.29220000
H        0.78520000       2.03600000       0.04860000
H       -0.68210000       1.80690000      -0.93930000
H       -0.79900000       1.77360000       0.82820000
H        1.84470000      -2.20540000      -1.08950000
H        2.90900000      -0.78060000      -1.04610000
H       -1.01930000      -1.91500000      -0.09710000
