25
Properties=species:S:1:pos:R:3 gdb_103596=T pbc="F F F"
C       -0.74070000       1.49900000      -0.54250000
C       -0.21310000       0.09900000      -0.21390000
C        0.97140000      -0.34030000      -1.08290000
C        2.21130000       0.52340000      -0.87530000
C        1.22720000      -1.86810000      -1.10170000
C        0.80190000      -1.80360000      -2.59070000
C        1.89620000      -2.11880000      -3.60430000
C       -0.50170000      -2.51460000      -2.93700000
O        0.59350000      -0.36380000      -2.49240000
H       -0.01650000       2.28060000      -0.29370000
H       -0.96820000       1.57370000      -1.60970000
H       -1.65640000       1.70950000       0.01820000
H        0.08560000       0.03800000       0.84130000
H       -1.02260000      -0.62770000      -0.34890000
H        2.52190000       0.50950000       0.17560000
H        3.04290000       0.15780000      -1.48360000
H        2.01810000       1.56060000      -1.16320000
H        2.26330000      -2.16740000      -0.92940000
H        0.57190000      -2.45580000      -0.45490000
H        2.10490000      -3.19420000      -3.62880000
H        1.58540000      -1.80760000      -4.60710000
H        2.82270000      -1.59330000      -3.35810000
H       -1.28420000      -2.27510000      -2.21210000
H       -0.85020000      -2.20550000      -3.92800000
H       -0.36120000      -3.60120000      -2.94720000
