21
Properties=species:S:1:pos:R:3 gdb_107429=T pbc="F F F"
C       -0.36640000       1.48700000       0.10630000
C        0.19380000       0.06030000       0.04150000
C        0.77420000      -0.30130000      -1.30380000
O        1.79370000      -1.32200000      -1.29650000
C        2.15540000      -0.00230000      -1.73250000
C        2.20520000       0.17750000      -3.24300000
C        0.78410000      -0.10780000      -3.74240000
C        0.17110000      -1.46640000      -3.52550000
C       -0.10930000      -0.35700000      -2.53930000
H        0.41060000       2.22630000      -0.11440000
H       -1.18050000       1.63810000      -0.60970000
H       -0.76150000       1.70170000       1.10350000
H        0.98250000      -0.06830000       0.79010000
H       -0.59470000      -0.66030000       0.29430000
H        2.88450000       0.50210000      -1.10000000
H        2.48030000       1.21470000      -3.46820000
H        2.96220000      -0.46670000      -3.70400000
H        0.42400000       0.47460000      -4.58350000
H       -0.63680000      -1.74980000      -4.19200000
H        0.80270000      -2.28000000      -3.19160000
H       -1.10710000       0.05880000      -2.46890000
