22
Properties=species:S:1:pos:R:3 gdb_119414=T pbc="F F F"
C       -0.11720000       1.49610000       0.18300000
C        0.14200000       0.02830000       0.04110000
C        0.55900000      -0.71620000      -1.23630000
C        1.33350000      -1.74340000      -0.34170000
C        0.88390000      -0.94960000       0.89560000
C        1.62010000      -0.79340000       2.19190000
C        1.55760000      -2.04500000       3.06640000
O        2.30000000      -1.78020000       4.24690000
N       -0.60910000      -0.97690000       0.84290000
H        0.67050000       2.08460000      -0.30010000
H       -1.07160000       1.77460000      -0.28050000
H       -0.16020000       1.79390000       1.23660000
H       -0.26560000      -1.11160000      -1.83490000
H        1.22610000      -0.13040000      -1.87380000
H        0.99190000      -2.78070000      -0.38390000
H        2.41420000      -1.70710000      -0.50170000
H        2.67470000      -0.55990000       2.00000000
H        1.21030000       0.04980000       2.76230000
H        0.50750000      -2.28440000       3.29530000
H        1.97370000      -2.90310000       2.51500000
H        2.27190000      -2.56460000       4.80230000
H       -0.93590000      -0.49010000       1.67970000
