20
Properties=species:S:1:pos:R:3 gdb_119134=T pbc="F F F"
N       -2.01100000      -1.67510000       2.19590000
H       -1.32950000      -1.94720000       1.49340000
H       -2.25660000      -2.51320000       2.71190000
H       -1.38140000      -0.34380000       3.04160000
C       -3.19400000      -1.06610000       1.55870000
C       -2.91350000       0.39120000       1.16160000
C       -2.96360000       1.43180000       2.27820000
C       -3.55390000       2.78360000       1.91380000
C       -4.34510000       1.85410000       2.77570000
C       -1.88490000       1.52490000       3.34630000
O       -1.76790000       2.51610000       4.02950000
O       -1.07470000       0.48060000       3.51570000
H       -3.51800000      -1.63140000       0.67380000
H       -4.01670000      -1.09700000       2.28030000
H       -1.94540000       0.44020000       0.64400000
H       -3.66330000       0.67630000       0.41580000
H       -3.09740000       3.63880000       2.39460000
H       -3.86330000       2.92420000       0.88380000
H       -5.20240000       1.34510000       2.34630000
H       -4.43180000       2.09570000       3.82810000
