15
Properties=species:S:1:pos:R:3 gdb_125463=T pbc="F F F"
C       -0.02140000       1.47630000       0.00950000
C       -0.00100000      -0.01460000      -0.02880000
N       -0.04450000      -0.74300000      -1.13370000
C       -0.00210000      -2.02420000      -0.66040000
C        0.06710000      -2.10120000       0.72210000
N        0.06700000      -0.77540000       1.12310000
C        0.10290000      -3.47320000       1.03460000
N        0.05810000      -4.19070000      -0.09240000
N       -0.00570000      -3.30090000      -1.11860000
H        0.88030000       1.88200000       0.48260000
H       -0.07530000       1.85150000      -1.01270000
H       -0.88640000       1.85560000       0.56590000
H        0.10780000      -0.41330000       2.05960000
H        0.15720000      -3.98160000       1.98460000
H       -0.04690000      -3.64400000      -2.06170000
