21
Properties=species:S:1:pos:R:3 gdb_53581=T pbc="F F F"
C       -0.07480000       1.43740000      -0.33730000
C       -0.03800000       0.00930000      -0.05490000
C       -0.00070000      -1.17130000       0.17830000
C        0.01670000      -2.60480000       0.46300000
C       -1.34730000      -3.25580000       0.27940000
C       -1.81470000      -3.75070000      -1.07620000
C       -1.53400000      -4.72700000       0.04550000
C       -0.37880000      -5.69930000      -0.04230000
O       -2.64940000      -5.24580000       0.73080000
H        0.68180000       1.71810000      -1.07870000
H       -1.05110000       1.74010000      -0.73240000
H        0.11290000       2.02900000       0.56580000
H        0.75650000      -3.09260000      -0.18380000
H        0.36480000      -2.76880000       1.49210000
H       -2.12710000      -2.81880000       0.89540000
H       -2.85090000      -3.57930000      -1.34550000
H       -1.11290000      -3.70200000      -1.90370000
H        0.48410000      -5.27150000      -0.55890000
H       -0.06510000      -6.01570000       0.95780000
H       -0.67880000      -6.59580000      -0.59920000
H       -3.01560000      -5.95940000       0.19590000
