17
Properties=species:S:1:pos:R:3 gdb_46804=T pbc="F F F"
O       -0.05550000       0.28700000       1.00710000
C       -0.03890000       1.16570000       0.19810000
O       -1.17640000       1.84050000      -0.10500000
C       -1.58220000       2.33870000      -1.39020000
C       -0.54850000       3.19070000      -2.11530000
C        0.64910000       2.35210000      -2.63570000
C        1.33720000       2.62030000      -1.27940000
C        0.42570000       3.86050000      -1.10450000
O        1.13620000       1.55600000      -0.34420000
H       -1.89850000       1.49160000      -2.01260000
H       -2.46770000       2.93430000      -1.15480000
H       -1.05900000       3.83050000      -2.83950000
H        0.47610000       1.30460000      -2.89720000
H        1.17600000       2.84780000      -3.45470000
H        2.41640000       2.77140000      -1.26560000
H        0.90920000       4.74490000      -1.52580000
H        0.06100000       4.08640000      -0.10170000
