15
Properties=species:S:1:pos:R:3 gdb_133237=T pbc="F F F"
C        0.00790000       1.44870000      -0.01800000
N        0.02140000      -0.00780000       0.01020000
N       -0.02700000      -0.64700000      -1.18160000
C       -0.01630000      -1.94010000      -1.18020000
C        0.04410000      -2.81760000      -0.00140000
N        0.05390000      -4.10630000      -0.02070000
C        0.09370000      -2.06220000       1.23620000
C        0.07970000      -0.71800000       1.17540000
F        0.12200000       0.05390000       2.25470000
H        0.91490000       1.85920000       0.43490000
H       -0.04090000       1.73550000      -1.06680000
H       -0.86220000       1.84430000       0.51360000
H       -0.05700000      -2.39620000      -2.16680000
H        0.01330000      -4.44420000      -0.98450000
H        0.14090000      -2.56610000       2.19150000
