18
Properties=species:S:1:pos:R:3 gdb_67506=T pbc="F F F"
C       -0.00610000       1.46030000       0.05070000
C       -0.06250000      -0.03020000      -0.11610000
C       -1.41490000      -0.76630000      -0.03290000
C       -1.33010000      -2.21820000      -0.38990000
C       -0.72910000      -1.73980000       0.90180000
N        0.58100000      -0.97150000       0.88480000
C        1.13120000      -0.85180000      -0.47080000
C        1.40670000      -1.92040000      -1.48800000
O        1.61600000      -3.08240000      -1.25200000
H        1.00750000       1.79340000       0.28950000
H       -0.33040000       1.96660000      -0.86620000
H       -0.66910000       1.77850000       0.86260000
H       -2.34510000      -0.22730000       0.08950000
H       -2.26080000      -2.75640000      -0.23090000
H       -0.76260000      -2.59170000      -1.22990000
H       -1.03380000      -2.12560000       1.86510000
H        2.03590000      -0.23330000      -0.43480000
H        1.50800000      -1.51110000      -2.52070000
