13
Properties=species:S:1:pos:R:3 gdb_1456=T pbc="F F F"
N        0.33580000       1.40570000      -0.04380000
C        0.03010000      -0.00720000       0.03940000
C       -1.46910000      -0.34970000      -0.02700000
O       -2.32820000       0.48510000      -0.13940000
N       -1.71960000      -1.72840000       0.05700000
C       -2.94890000      -2.38500000       0.02960000
O       -4.02870000      -1.87550000      -0.07270000
H       -0.06180000       1.77780000      -0.90220000
H       -0.15920000       1.89310000       0.69850000
H        0.54330000      -0.54200000      -0.77170000
H        0.43710000      -0.41610000       0.97450000
H       -0.91170000      -2.32840000       0.14940000
H       -2.79530000      -3.48060000       0.11790000
