18
Properties=species:S:1:pos:R:3 gdb_10951=T pbc="F F F"
C        0.06480000       1.54090000      -0.01760000
C       -0.09410000       0.06200000       0.11630000
C       -1.38550000      -0.77650000       0.07410000
C       -0.68150000      -1.82940000       1.00410000
C       -0.53060000      -3.24660000       0.48910000
O       -1.83120000      -3.81640000       0.40520000
C        0.57280000      -0.93980000       0.96930000
O        0.94670000      -0.78220000      -0.40860000
H        1.09120000       1.83860000       0.21310000
H       -0.16250000       1.86480000      -1.03980000
H       -0.61610000       2.06720000       0.65920000
H       -2.23870000      -0.29440000       0.55660000
H       -1.67820000      -1.12640000      -0.91850000
H       -1.14080000      -1.83930000       1.99710000
H       -0.03700000      -3.21930000      -0.49220000
H        0.11350000      -3.82420000       1.17340000
H       -1.75400000      -4.67650000      -0.01760000
H        1.36210000      -0.83810000       1.70700000
