16
Properties=species:S:1:pos:R:3 gdb_13733=T pbc="F F F"
C        0.01290000       1.40060000       0.37630000
C        0.09410000      -0.03760000      -0.09750000
O        1.13100000      -0.53880000      -0.47170000
C       -1.18950000      -0.81100000      -0.06250000
C       -1.26620000      -2.11310000      -0.81310000
C       -1.22260000      -2.16230000       0.69070000
C       -0.08180000      -2.66160000       1.39860000
C        0.84430000      -3.10150000       2.02630000
H        1.00030000       1.86140000       0.33840000
H       -0.68360000       1.96810000      -0.25190000
H       -0.37730000       1.43980000       1.39980000
H       -2.09500000      -0.22270000       0.04130000
H       -2.19770000      -2.37020000      -1.30340000
H       -0.35630000      -2.39460000      -1.32990000
H       -2.17160000      -2.35130000       1.18480000
H        1.67660000      -3.48550000       2.56180000
