23
Properties=species:S:1:pos:R:3 gdb_79446=T pbc="F F F"
C       -0.14700000       1.52750000       0.05230000
C       -0.01090000       0.00820000       0.04750000
C        0.76600000      -0.55910000      -1.15450000
C        2.12160000      -0.31340000      -0.41320000
C        2.65440000      -1.63470000      -0.98250000
C        1.17340000      -2.07620000      -0.87000000
C        0.93200000      -2.10730000       0.66200000
C        1.78440000      -3.06390000       1.49450000
C        1.18480000      -0.58990000       0.84980000
H        0.79980000       2.02910000      -0.17060000
H       -0.87800000       1.85600000      -0.69520000
H       -0.49060000       1.88470000       1.02950000
H       -0.98570000      -0.44350000       0.27060000
H        0.58890000      -0.26750000      -2.19080000
H        2.67610000       0.62250000      -0.44720000
H        2.95460000      -1.49720000      -2.02640000
H        3.42770000      -2.20430000      -0.46130000
H        0.77630000      -2.90170000      -1.46210000
H       -0.12030000      -2.33380000       0.86990000
H        2.84920000      -2.81790000       1.47070000
H        1.47030000      -3.03390000       2.54350000
H        1.67230000      -4.09720000       1.14640000
H        1.43890000      -0.23140000       1.84880000
