19
Properties=species:S:1:pos:R:3 gdb_54217=T pbc="F F F"
C       -0.14360000       1.51900000       0.05920000
C        0.03900000       0.01450000       0.01300000
O        1.13240000      -0.50170000       0.03670000
C       -1.24630000      -0.82710000      -0.00890000
C       -2.24030000      -0.36390000      -1.08040000
C       -0.98710000      -2.35690000       0.13000000
C       -1.44860000      -2.33210000       1.61950000
C       -1.85150000      -0.86940000       1.42770000
O       -2.44880000      -0.05860000       2.07400000
H        0.80100000       1.98870000       0.33590000
H       -0.44830000       1.89130000      -0.92510000
H       -0.93250000       1.78950000       0.76840000
H       -1.79670000      -0.42030000      -2.07990000
H       -3.13050000      -0.99990000      -1.07150000
H       -2.56650000       0.66340000      -0.90130000
H       -1.63210000      -2.95650000      -0.51450000
H        0.05470000      -2.63240000      -0.02550000
H       -2.26290000      -2.99870000       1.91510000
H       -0.63440000      -2.44120000       2.34340000
