21
Properties=species:S:1:pos:R:3 gdb_106985=T pbc="F F F"
C        0.11110000       1.53020000       0.21750000
C        0.05510000       0.03090000      -0.11040000
C       -1.35310000      -0.50090000      -0.10490000
C       -2.07850000      -0.94520000       1.16330000
C       -1.94870000      -1.92870000       0.05230000
C       -3.01190000      -1.65960000      -1.03110000
C       -4.49700000      -1.84150000      -0.74220000
C       -2.39260000      -0.23780000      -1.15680000
O       -2.56210000       0.65780000      -1.93930000
H        1.13980000       1.90110000       0.17920000
H       -0.48660000       2.09880000      -0.50010000
H       -0.28400000       1.72920000       1.21910000
H        0.50120000      -0.14160000      -1.09780000
H        0.65960000      -0.53630000       0.60840000
H       -1.41200000      -1.08670000       2.00920000
H       -3.04320000      -0.52670000       1.43440000
H       -1.38410000      -2.84740000       0.15140000
H       -2.74860000      -2.18500000      -1.95850000
H       -4.79230000      -1.36800000       0.19880000
H       -5.09280000      -1.39170000      -1.54260000
H       -4.76040000      -2.90250000      -0.68060000
