17
Properties=species:S:1:pos:R:3 gdb_127836=T pbc="F F F"
C        0.02750000       1.43810000       0.04900000
N        0.09980000      -0.00990000       0.04750000
C        0.58650000      -0.63920000      -0.95230000
C        0.66320000      -2.08930000      -0.96290000
C        1.18100000      -2.72460000      -2.03010000
C        1.33070000      -4.20500000      -2.19660000
N        1.61920000      -1.93680000      -3.07760000
N        1.56330000      -0.57960000      -3.10260000
N        1.08470000       0.03970000      -2.11980000
H        0.57780000       1.81780000       0.91930000
H        0.41410000       1.92120000      -0.85360000
H       -1.01820000       1.73880000       0.19340000
H        0.29800000      -2.63420000      -0.10200000
H        0.77610000      -4.56240000      -3.07230000
H        2.38210000      -4.48290000      -2.33570000
H        0.95180000      -4.72340000      -1.31450000
H        2.01980000      -2.32800000      -3.91440000
