13
Properties=species:S:1:pos:R:3 gdb_130284=T pbc="F F F"
N       -0.01040000       1.35200000       0.25900000
C        0.02480000      -0.00530000       0.01960000
N       -1.09020000      -0.68410000      -0.17050000
O       -0.67440000      -2.03410000      -0.29800000
C        0.65350000      -2.07070000      -0.17880000
O        1.26990000      -3.26160000      -0.31050000
C        0.62800000      -4.40430000       0.13110000
O        1.11430000      -5.47260000      -0.04040000
C        1.18420000      -0.84060000       0.02010000
H        0.77310000       1.86870000      -0.11190000
H       -0.89730000       1.77780000       0.02610000
H       -0.32420000      -4.18580000       0.63310000
H        2.21680000      -0.57790000       0.16860000
