16
Properties=species:S:1:pos:R:3 gdb_10815=T pbc="F F F"
C       -0.20920000       1.51500000       0.00550000
C        0.03520000       0.00000000       0.01690000
C        0.78680000      -0.44240000      -1.23770000
O        1.16770000      -1.82440000      -1.21030000
C        1.78450000      -2.30140000      -0.09500000
O        2.32950000      -3.37400000      -0.12850000
C        1.67440000      -1.47880000       1.13250000
C        0.82850000      -0.44970000       1.21490000
H        0.73620000       2.06770000      -0.01170000
H       -0.79130000       1.81210000      -0.87230000
H       -0.76370000       1.82580000       0.89600000
H       -0.94180000      -0.50660000       0.04100000
H        0.17430000      -0.32930000      -2.13520000
H        1.68950000       0.17310000      -1.35780000
H        2.25470000      -1.83730000       1.97430000
H        0.68720000       0.07980000       2.15470000
