19
Properties=species:S:1:pos:R:3 gdb_79237=T pbc="F F F"
C       -0.09460000       1.53200000       0.01190000
C       -0.09170000       0.02780000       0.00410000
C        0.47690000      -0.78590000      -1.19310000
C       -0.47690000      -1.90350000      -0.77400000
C       -0.51750000      -1.91920000       0.78290000
C        0.37980000      -0.78610000       1.25730000
O        1.75170000      -0.98890000       1.49450000
C       -1.35620000      -0.95480000      -0.02550000
O       -2.70720000      -0.74970000      -0.12990000
H        0.93000000       1.91720000       0.07300000
H       -0.55410000       1.93960000      -0.89480000
H       -0.64640000       1.92710000       0.87270000
H        0.17980000      -0.34710000      -2.14970000
H        1.55860000      -0.97320000      -1.20620000
H       -0.77900000      -2.78360000      -1.32660000
H       -0.84120000      -2.80400000       1.31660000
H       -0.01580000      -0.32490000       2.16870000
H        2.08810000      -1.57620000       0.81040000
H       -3.04840000      -0.48890000       0.73280000
