23
Properties=species:S:1:pos:R:3 gdb_92750=T pbc="F F F"
C       -0.08230000       1.59220000       0.00240000
C        0.00750000       0.05520000       0.02160000
C        0.61060000      -0.46950000      -1.29750000
C        0.56720000      -1.96940000      -1.43240000
C        1.29100000      -2.80760000      -0.68960000
C        1.21660000      -4.30130000      -0.85490000
C        2.25620000      -2.30050000       0.36990000
C        1.69370000      -1.33640000       1.39340000
C        0.75920000      -0.39510000       1.25290000
H        0.91270000       2.04120000      -0.09370000
H       -0.69210000       1.93820000      -0.83860000
H       -0.53230000       1.97490000       0.92440000
H       -1.02180000      -0.32970000       0.09580000
H        0.07330000      -0.00920000      -2.13360000
H        1.64740000      -0.10940000      -1.36500000
H       -0.11210000      -2.38080000      -2.17610000
H        0.52490000      -4.58720000      -1.65200000
H        2.20230000      -4.72350000      -1.09200000
H        0.88840000      -4.78670000       0.07370000
H        2.67010000      -3.15820000       0.91140000
H        3.12700000      -1.83910000      -0.12470000
H        2.12740000      -1.44760000       2.38590000
H        0.49630000       0.16440000       2.15110000
