19
Properties=species:S:1:pos:R:3 gdb_37309=T pbc="F F F"
C        0.09240000       1.52200000      -0.11900000
C        1.35830000       0.72790000       0.04090000
C       -0.01270000       0.03810000       0.06700000
C        0.32420000      -0.70940000      -1.23740000
C       -0.50490000      -0.55070000      -2.47080000
C        0.04200000      -0.06260000      -3.58320000
C        1.46720000       0.43200000      -3.60810000
O        1.90320000       0.92480000      -2.35110000
C        1.70510000       0.03200000      -1.27500000
H       -0.18550000       2.11640000       0.74510000
H       -0.13830000       1.97860000      -1.07630000
H        2.05200000       0.90100000       0.85370000
H       -0.52420000      -0.40420000       0.91310000
H        0.48040000      -1.77390000      -1.02740000
H       -1.54420000      -0.87050000      -2.44590000
H       -0.52170000       0.00660000      -4.50960000
H        2.14400000      -0.36200000      -3.97380000
H        1.56630000       1.27250000      -4.30300000
H        2.55340000      -0.66110000      -1.19240000
