19
Properties=species:S:1:pos:R:3 gdb_90127=T pbc="F F F"
O        0.22680000       1.44610000      -0.13060000
C        0.14210000       0.04400000      -0.05790000
C        0.29390000      -0.60030000       1.40710000
C       -1.26120000      -0.58770000       1.47950000
C       -2.59060000      -1.42650000       1.42370000
C       -2.85430000      -0.37110000       0.24840000
O       -2.99580000       0.84770000       0.94340000
C       -1.86570000       0.78870000       1.84340000
C       -1.30950000      -0.56490000      -0.03460000
H        1.15160000       1.69410000      -0.02920000
H        0.78730000      -0.41860000      -0.81720000
H        0.72460000      -1.60270000       1.34410000
H        0.84550000      -0.01570000       2.15040000
H       -2.45970000      -2.45390000       1.08390000
H       -3.29210000      -1.36980000       2.26140000
H       -3.64330000      -0.48100000      -0.49610000
H       -2.21260000       0.82120000       2.88360000
H       -1.20170000       1.63130000       1.64680000
H       -1.18350000      -1.58310000      -0.41510000
