21
Properties=species:S:1:pos:R:3 gdb_79259=T pbc="F F F"
C       -0.13450000       1.55790000       0.01850000
C        0.03120000       0.03980000       0.00820000
C        0.91680000      -0.53140000      -1.09580000
C        2.33050000      -0.63010000      -0.54200000
C        2.28820000      -0.12560000       0.89290000
C        0.83040000      -0.56470000       1.19440000
O        0.28030000      -0.22460000       2.43780000
C        0.87470000      -2.06630000       0.80010000
C        1.44350000      -1.86580000      -0.59840000
H        0.82400000       2.07870000      -0.06370000
H       -0.75420000       1.88240000      -0.82410000
H       -0.62150000       1.88300000       0.94270000
H       -0.96420000      -0.42220000      -0.01010000
H        0.72730000      -0.34650000      -2.14550000
H        3.20080000      -0.52760000      -1.17690000
H        3.00930000      -0.63280000       1.54590000
H        2.43340000       0.95320000       0.99220000
H        0.83570000      -0.60130000       3.12790000
H        1.53180000      -2.65110000       1.45520000
H       -0.12240000      -2.51790000       0.80990000
H        1.65200000      -2.68680000      -1.27200000
