15
Properties=species:S:1:pos:R:3 gdb_133551=T pbc="F F F"
F        0.04330000       0.09060000       0.02600000
C       -0.05600000       1.42880000       0.06560000
F        1.18860000       1.93250000       0.02290000
F       -0.69670000       1.82690000      -1.03730000
C       -0.76740000       1.86560000       1.31670000
C       -2.25040000       1.64430000       1.69920000
C       -1.59030000       2.52990000       2.78880000
C       -0.36950000       1.56640000       2.78600000
N       -0.97520000       3.33110000       1.64350000
H       -2.97420000       2.14620000       1.05840000
H       -2.54210000       0.63310000       1.98330000
H       -2.06620000       3.02230000       3.63570000
H       -0.51080000       0.54730000       3.15710000
H        0.58160000       1.99350000       3.11450000
H       -0.08190000       3.72630000       1.95520000
