19
Properties=species:S:1:pos:R:3 gdb_114842=T pbc="F F F"
C        0.04420000       1.39850000       0.01500000
O       -0.04700000      -0.01410000      -0.04480000
C        0.62790000      -0.56850000      -1.11940000
O        2.05850000      -0.41080000      -1.00810000
C        2.58960000      -1.74170000      -0.89870000
C        2.10750000      -2.33790000       0.43120000
O        0.71000000      -2.59400000       0.18260000
C        0.45910000      -2.10310000      -1.13430000
C        1.72100000      -2.51840000      -1.90390000
H        1.08020000       1.72620000       0.15930000
H       -0.34960000       1.86430000      -0.90140000
H       -0.56080000       1.72030000       0.86500000
H        0.31030000      -0.08560000      -2.05910000
H        3.66810000      -1.70730000      -1.04690000
H        2.61360000      -3.27550000       0.69330000
H        2.21830000      -1.61830000       1.24870000
H       -0.51390000      -2.45910000      -1.46850000
H        1.79780000      -2.11550000      -2.91520000
H        1.86960000      -3.59980000      -1.90260000
