22
Properties=species:S:1:pos:R:3 gdb_111490=T pbc="F F F"
C        1.03300000       1.10660000      -0.77000000
C        0.31210000      -0.06710000      -0.08630000
C        0.26520000      -1.36550000      -0.94330000
C        1.25410000      -2.32230000      -0.29160000
C        2.62380000      -1.82140000      -0.01800000
N        1.61160000      -1.84750000       1.05570000
C        0.89330000      -0.56820000       1.27480000
C        1.77380000       0.38500000       2.07670000
O        2.15180000      -0.19610000       3.31040000
H        2.06120000       0.87680000      -1.06210000
H        0.49490000       1.39050000      -1.68060000
H        1.06270000       1.98820000      -0.12190000
H       -0.71220000       0.27180000       0.09830000
H       -0.73530000      -1.80980000      -0.91590000
H        0.50110000      -1.17390000      -1.99550000
H        1.08410000      -3.38990000      -0.40200000
H        3.43810000      -2.52600000       0.12480000
H        2.92760000      -0.87150000      -0.44440000
H        0.04990000      -0.83610000       1.92330000
H        2.65760000       0.67160000       1.48410000
H        1.22530000       1.30450000       2.30960000
H        2.36370000      -1.11750000       3.11410000
