20
Properties=species:S:1:pos:R:3 gdb_80914=T pbc="F F F"
C        0.01530000       1.46990000       0.01720000
C        0.01810000      -0.03330000       0.01430000
C        0.59890000      -1.00500000      -1.07700000
C        0.01560000      -1.95580000       0.01680000
C        0.63740000      -1.00270000       1.08790000
O        2.01100000      -0.99620000       1.35760000
C       -1.18290000      -0.99810000       0.04790000
C       -2.48500000      -0.97430000       0.72410000
N       -2.37720000      -1.04850000      -0.76750000
H        1.03860000       1.85920000       0.03860000
H       -0.47710000       1.87510000      -0.87440000
H       -0.50580000       1.85940000       0.89890000
H        0.08730000      -1.01180000      -2.04160000
H        1.68320000      -1.00150000      -1.22830000
H       -0.00180000      -3.04490000       0.01360000
H        0.14020000      -0.99410000       2.06100000
H        2.49860000      -1.10180000       0.53460000
H       -2.89060000      -1.86880000       1.18930000
H       -2.82750000      -0.04160000       1.16680000
H       -2.57860000      -0.13380000      -1.16750000
