18
Properties=species:S:1:pos:R:3 gdb_106538=T pbc="F F F"
C        0.05300000       1.50050000       0.05120000
C        0.03580000      -0.03050000      -0.04500000
C        0.64070000      -0.55100000      -1.31300000
N        2.10240000      -0.25760000      -1.74090000
C        1.59140000      -1.16330000      -2.86700000
C        0.98190000      -2.03310000      -1.71950000
O        1.85270000      -2.73340000      -0.89680000
C        0.31320000      -0.31020000      -2.79880000
O       -0.40350000       0.34820000      -3.49090000
H        1.07840000       1.88480000       0.05080000
H       -0.48000000       1.95130000      -0.79140000
H       -0.42510000       1.83690000       0.97530000
H        0.56540000      -0.47720000       0.80540000
H       -0.99700000      -0.39710000       0.00500000
H        2.21400000       0.70740000      -2.06080000
H        2.22800000      -1.45930000      -3.69780000
H        0.14430000      -2.68200000      -1.97660000
H        2.58190000      -2.12350000      -0.71060000
