14
Properties=species:S:1:pos:R:3 gdb_56626=T pbc="F F F"
O       -0.34150000       1.24010000      -0.14940000
C        0.11530000      -0.09790000      -0.06400000
C        0.93300000      -0.46260000      -1.23400000
N        1.60610000      -0.69070000      -2.14470000
C        0.88180000      -0.35500000       1.24680000
C        0.10630000       0.22360000       2.44020000
O        0.64240000       0.60180000       3.44480000
C        1.08440000      -1.84730000       1.51830000
O        0.51880000      -2.71120000       0.90320000
H        0.41580000       1.81950000      -0.29530000
H       -0.78180000      -0.72440000      -0.07110000
H        1.86720000       0.12460000       1.24550000
H       -0.99580000       0.22470000       2.31820000
H        1.77770000      -2.06890000       2.35410000
