20
Properties=species:S:1:pos:R:3 gdb_82037=T pbc="F F F"
C       -0.56880000       1.38040000       0.31600000
N       -0.05080000       0.02970000       0.18820000
C        0.35310000      -0.45540000      -1.12740000
C        1.61550000       0.18680000      -1.64170000
C        1.70640000      -0.90260000      -0.60380000
C        1.27880000      -0.37840000       0.76990000
C        2.13850000       0.67170000       1.46790000
C        0.94970000      -1.50170000       1.74270000
O        1.37640000      -2.62510000       1.67590000
H        0.07860000       2.16370000      -0.11150000
H       -1.53620000       1.43150000      -0.19460000
H       -0.74050000       1.61660000       1.37060000
H       -0.35500000      -0.97320000      -1.76510000
H        1.91150000      -0.11720000      -2.64120000
H        1.85830000       1.21870000      -1.40490000
H        2.21520000      -1.84340000      -0.75600000
H        2.36630000       1.51260000       0.80910000
H        1.64270000       1.06440000       2.36240000
H        3.08550000       0.21970000       1.78020000
H        0.23290000      -1.19250000       2.53760000
