17
Properties=species:S:1:pos:R:3 gdb_55202=T pbc="F F F"
N        0.62440000       0.71220000       0.78490000
C        0.46060000      -0.59890000       0.29640000
N       -0.91110000      -0.97130000       0.04640000
H       -1.41440000      -1.09100000       0.91830000
C       -0.83460000      -2.24230000      -0.72340000
C        0.69680000      -2.46770000      -0.86170000
C        1.17110000      -1.00840000      -0.99730000
C        1.18850000      -2.77390000       0.55310000
O        1.59130000      -3.80190000       1.01850000
O        1.05350000      -1.61890000       1.25920000
H        1.57810000       0.85680000       1.09820000
H        0.00550000       0.89750000       1.56730000
H       -1.33620000      -3.06890000      -0.21210000
H       -1.29620000      -2.11950000      -1.70940000
H        0.99900000      -3.20370000      -1.60240000
H        0.77190000      -0.47910000      -1.86410000
H        2.25390000      -0.88540000      -0.93970000
