19
Properties=species:S:1:pos:R:3 gdb_112300=T pbc="F F F"
C       -0.01230000       1.54170000      -0.07620000
C        0.00600000       0.01090000      -0.05320000
C       -1.38000000      -0.60290000       0.10570000
O       -2.22250000      -0.20290000      -1.00070000
C       -3.03380000      -1.22310000      -1.42170000
O       -3.95520000      -1.04080000      -2.16290000
C       -2.55510000      -2.50490000      -0.81660000
C       -1.10850000      -2.83490000      -1.14410000
C       -1.44440000      -2.12550000       0.13100000
H        0.99910000       1.94270000      -0.18840000
H       -0.62120000       1.90920000      -0.90610000
H       -0.43130000       1.94630000       0.85180000
H        0.46330000      -0.37660000      -0.97030000
H        0.62210000      -0.34860000       0.78090000
H       -1.84720000      -0.20800000       1.01890000
H       -3.27560000      -3.29390000      -0.65270000
H       -0.83330000      -3.88080000      -1.07340000
H       -0.62590000      -2.29420000      -1.95110000
H       -1.30690000      -2.62760000       1.08050000
