13
Properties=species:S:1:pos:R:3 gdb_10439=T pbc="F F F"
C        0.02330000      -1.25640000       0.29320000
C       -0.00380000      -0.05880000       0.20680000
C       -0.08360000       1.37690000       0.09520000
C       -1.35740000       1.92520000      -0.54840000
C       -1.55630000       1.44940000      -1.91740000
N       -1.72400000       1.08000000      -2.99850000
C        0.65210000       2.23370000       1.04810000
O        1.11810000       2.05660000      -0.28600000
H        0.06000000      -2.31630000       0.35900000
H       -2.22540000       1.63510000       0.05400000
H       -1.30570000       3.01810000      -0.55810000
H        0.26030000       3.22230000       1.28530000
H        1.25190000       1.76280000       1.82350000
