18
Properties=species:S:1:pos:R:3 gdb_97186=T pbc="F F F"
C        0.02960000       1.44100000      -0.10900000
N       -0.00430000      -0.01240000      -0.06810000
C        0.49030000      -0.61730000       0.93330000
C        0.50740000      -2.13410000       0.99200000
N        0.38430000      -2.67590000       2.34210000
C        1.41040000      -2.13320000       3.22300000
C        1.57070000      -0.61390000       3.18700000
O        2.09500000       0.03000000       4.06810000
N        1.06500000       0.00270000       2.04980000
H        1.05410000       1.84240000      -0.06490000
H       -0.41510000       1.78370000      -1.04580000
H       -0.54300000       1.89690000       0.71330000
H       -0.29380000      -2.50590000       0.35210000
H        1.45630000      -2.49130000       0.56760000
H       -0.53450000      -2.45360000       2.71300000
H        1.21680000      -2.41680000       4.25990000
H        2.38310000      -2.56860000       2.95390000
H        1.14140000       1.01120000       2.06210000
