17
Properties=species:S:1:pos:R:3 gdb_44463=T pbc="F F F"
O        0.07830000       0.01600000      -0.23390000
C       -0.01090000       1.19490000      -0.04610000
C       -1.36070000       1.99990000       0.00030000
C       -0.87340000       3.44230000      -0.05680000
C       -0.77070000       4.59510000       0.99090000
C       -0.18140000       3.63470000       2.03060000
C        0.48780000       3.37690000       0.64790000
C        1.21720000       2.15480000       0.18990000
O        0.62990000       4.84160000       0.48800000
H       -1.99610000       1.69420000      -0.83360000
H       -1.88050000       1.71560000       0.92100000
H       -0.79170000       3.82190000      -1.07780000
H       -1.38810000       5.48370000       1.12400000
H        0.47100000       4.09960000       2.76970000
H       -0.82500000       2.86580000       2.46300000
H        1.92720000       1.70130000       0.88400000
H        1.71540000       2.30730000      -0.77490000
