16
Properties=species:S:1:pos:R:3 gdb_66904=T pbc="F F F"
C       -0.15480000       1.64360000      -0.10260000
C       -0.00930000       0.15370000      -0.00960000
C       -0.09380000      -0.86890000      -1.10390000
N        1.08800000      -1.67390000      -1.11500000
C        1.72350000      -1.37990000      -0.04950000
N        1.09130000      -0.40780000       0.84700000
C        0.38360000      -1.40420000       1.65620000
N       -0.79800000      -1.70810000       1.28570000
C       -1.07820000      -0.88680000       0.14920000
H        0.75030000       2.10300000      -0.51270000
H       -0.99310000       1.89920000      -0.75850000
H       -0.34650000       2.08300000       0.88150000
H       -0.57540000      -0.68220000      -2.05520000
H        2.65010000      -1.84920000       0.26100000
H        0.91120000      -1.88070000       2.47450000
H       -2.11900000      -0.71020000      -0.09020000
