20
Properties=species:S:1:pos:R:3 gdb_122465=T pbc="F F F"
C        0.23440000       1.55010000      -0.00700000
C       -0.02830000       0.05530000      -0.07370000
O        0.64800000      -0.47080000      -1.19750000
C        0.46200000      -1.86040000      -1.35580000
C        1.23660000      -2.29650000      -2.56940000
N        2.61170000      -2.74850000      -2.35290000
C        1.59540000      -3.73010000      -2.80550000
C        1.23050000      -4.78520000      -1.89870000
C        0.90120000      -5.68410000      -1.17130000
H        1.30630000       1.74630000       0.08550000
H       -0.12720000       2.04430000      -0.91320000
H       -0.27560000       1.98930000       0.85560000
H        0.32200000      -0.44140000       0.84680000
H       -1.11090000      -0.14500000      -0.15340000
H        0.81690000      -2.41500000      -0.47500000
H       -0.60850000      -2.09510000      -1.49060000
H        1.02760000      -1.70660000      -3.46010000
H        3.20430000      -2.48910000      -3.13740000
H        1.63070000      -4.03610000      -3.84920000
H        0.62120000      -6.47460000      -0.52000000
