20
Properties=species:S:1:pos:R:3 gdb_115734=T pbc="F F F"
C        0.24670000       1.32610000       0.20710000
O       -0.29180000       0.11840000      -0.28640000
C        0.52300000      -0.50850000      -1.23360000
C        1.68400000      -1.37370000      -0.68920000
O        1.03890000      -2.58790000      -1.13500000
C       -0.05930000      -1.85540000      -1.73210000
C       -1.40640000      -2.29770000      -1.21690000
C       -1.62520000      -3.74050000      -0.94780000
N       -1.56140000      -2.76810000       0.15940000
H        1.20060000       1.16960000       0.73300000
H        0.41430000       2.05350000      -0.60240000
H       -0.47860000       1.73750000       0.91200000
H        0.81010000       0.19480000      -2.02810000
H        2.65830000      -1.23270000      -1.17190000
H        1.80290000      -1.34550000       0.40040000
H       -0.03750000      -1.94530000      -2.82740000
H       -2.23350000      -1.69370000      -1.58390000
H       -2.60160000      -4.18470000      -1.11830000
H       -0.77960000      -4.40740000      -1.09020000
H       -0.63590000      -2.82710000       0.58000000
