19
Properties=species:S:1:pos:R:3 gdb_65543=T pbc="F F F"
O       -0.06930000       1.37540000       0.01280000
C       -0.00830000      -0.05010000       0.01050000
C        0.48660000      -0.64540000       1.38910000
C       -0.81740000      -1.32660000       1.84210000
C       -1.26100000      -2.04880000       0.53580000
C       -1.45800000      -0.59060000       0.03520000
C       -1.88880000      -0.25420000       1.49190000
C        0.77130000      -0.51860000      -1.13520000
C        1.43570000      -0.87330000      -2.07320000
H        0.81840000       1.70730000      -0.15810000
H        1.31540000      -1.34720000       1.26980000
H        0.80000000       0.17010000       2.04650000
H       -0.80170000      -1.83410000       2.80690000
H       -0.53490000      -2.68020000       0.01640000
H       -2.21170000      -2.57500000       0.64430000
H       -2.06330000      -0.33940000      -0.83460000
H       -2.90510000      -0.59430000       1.70300000
H       -1.74300000       0.76800000       1.84440000
H        2.01320000      -1.18940000      -2.90660000
