23
Properties=species:S:1:pos:R:3 gdb_109545=T pbc="F F F"
C       -0.03010000       1.67910000       0.13970000
C        0.03880000       0.14770000       0.15600000
C       -1.32250000      -0.52840000      -0.02010000
C       -1.85670000      -0.66090000      -1.50190000
C       -1.38540000       0.20150000      -2.66470000
C       -1.38180000      -2.11860000      -1.44600000
O       -1.02820000      -2.90050000      -2.28400000
C       -1.30140000      -2.10250000       0.08440000
C       -0.17850000      -2.86930000       0.76790000
H        0.95880000       2.11810000       0.30520000
H       -0.40800000       2.06100000      -0.81260000
H       -0.69370000       2.04740000       0.93010000
H        0.74030000      -0.20130000      -0.61330000
H        0.46590000      -0.17420000       1.11370000
H       -2.04240000      -0.06180000       0.65850000
H       -2.95430000      -0.66850000      -1.47100000
H       -0.29590000       0.29310000      -2.68970000
H       -1.69330000      -0.26150000      -3.60740000
H       -1.81400000       1.20730000      -2.62670000
H       -2.27140000      -2.43720000       0.47530000
H        0.80350000      -2.57560000       0.38730000
H       -0.18600000      -2.71130000       1.85120000
H       -0.29410000      -3.94140000       0.58260000
