19
Properties=species:S:1:pos:R:3 gdb_126317=T pbc="F F F"
C       -0.13440000       1.52440000       0.14780000
C        0.02330000      -0.00430000       0.07620000
C        0.74850000      -0.46950000      -1.15060000
C        2.00200000      -1.04080000      -1.26780000
N        2.23610000      -1.28190000      -2.57990000
C        3.40170000      -1.87300000      -3.19000000
N        1.19110000      -0.89590000      -3.35740000
C        0.30980000      -0.41270000      -2.49460000
O       -0.88580000       0.07670000      -2.89660000
H        0.84260000       2.01780000       0.16810000
H       -0.67950000       1.89530000      -0.72490000
H       -0.68590000       1.82020000       1.04620000
H        0.55430000      -0.36240000       0.96570000
H       -0.97270000      -0.46360000       0.10900000
H        2.73210000      -1.29280000      -0.51320000
H        4.12470000      -2.11090000      -2.40760000
H        3.13490000      -2.79110000      -3.72250000
H        3.85900000      -1.17770000      -3.90070000
H       -0.91870000      -0.01250000      -3.85720000
