13
Properties=species:S:1:pos:R:3 gdb_42745=T pbc="F F F"
O       -0.01130000      -0.00030000       0.01550000
C       -0.04730000       1.19580000       0.02370000
C       -1.24230000       2.16670000       0.02200000
O       -0.69440000       3.20590000      -0.81240000
C        0.43970000       3.55180000       0.00660000
C       -0.18040000       3.65680000       1.40060000
C       -1.21120000       2.80800000       1.41010000
C        1.16340000       2.19280000       0.01260000
O        2.33020000       1.92790000      -0.00590000
H       -2.18280000       1.78660000      -0.36970000
H        0.98880000       4.39840000      -0.39880000
H        0.21760000       4.24840000       2.21240000
H       -1.85930000       2.53820000       2.23140000
