18
Properties=species:S:1:pos:R:3 gdb_16332=T pbc="F F F"
C       -0.24040000       1.49210000       0.00770000
C       -0.00730000      -0.00730000      -0.10270000
C        1.25420000      -0.52830000      -0.89200000
C        1.72410000      -1.20920000       0.39850000
O        1.86030000      -0.18030000       1.38890000
C        0.54690000      -0.73100000       1.14420000
C       -0.18140000      -1.25090000       2.34090000
O       -0.65490000      -0.19350000       3.16400000
H        0.65820000       1.98710000       0.38670000
H       -0.48540000       1.92740000      -0.96690000
H       -1.06470000       1.70650000       0.69510000
H       -0.90820000      -0.51670000      -0.46090000
H        0.99780000      -1.22930000      -1.68970000
H        1.93560000       0.23380000      -1.27830000
H        2.33170000      -2.09830000       0.52840000
H       -1.06890000      -1.81220000       2.03010000
H        0.47780000      -1.93540000       2.89580000
H        0.11590000       0.32590000       3.41940000
