16
Properties=species:S:1:pos:R:3 gdb_16168=T pbc="F F F"
O        0.08060000       1.36130000       0.32060000
C        0.09420000       0.00950000      -0.11120000
C       -1.30000000      -0.53640000      -0.23630000
O       -1.94090000      -0.83140000       1.04270000
C       -1.73680000      -1.90050000       0.11430000
C       -2.96060000      -2.23920000      -0.73060000
C       -3.20240000      -0.95900000      -1.50730000
C       -2.27830000      -0.03080000      -1.25010000
H       -0.39110000       1.37780000       1.16120000
H        0.59250000       0.00650000      -1.08650000
H        0.67380000      -0.62940000       0.57110000
H       -1.05580000      -2.68040000       0.44600000
H       -2.76100000      -3.09120000      -1.39310000
H       -3.81830000      -2.51540000      -0.10560000
H       -4.05720000      -0.83210000      -2.16200000
H       -2.22430000       0.96490000      -1.67080000
