20
Properties=species:S:1:pos:R:3 gdb_40576=T pbc="F F F"
C        0.10640000       0.37780000      -0.66590000
C        0.60670000       1.37590000       0.31710000
N        0.94090000      -0.03740000       0.45680000
C        0.33790000      -0.75530000       1.56640000
C       -1.17250000      -0.97460000       1.75580000
C       -1.55200000      -2.26640000       1.01150000
C       -0.28820000      -2.80310000       0.33860000
C        0.46630000      -2.30270000       1.59940000
C       -0.91240000      -2.32980000       2.37480000
H       -0.95380000       0.13900000      -0.63180000
H        0.56330000       0.29380000      -1.64830000
H        1.43320000       2.03650000       0.06890000
H       -0.12380000       1.80130000       1.00410000
H        0.76040000      -0.34360000       2.48940000
H       -1.93160000      -0.26200000       2.05400000
H       -2.58460000      -2.46680000       0.75500000
H       -0.30440000      -3.89600000       0.30010000
H        0.02100000      -2.40490000      -0.63280000
H        1.39990000      -2.76410000       1.91290000
H       -1.23110000      -2.75060000       3.31640000
