14
Properties=species:S:1:pos:R:3 gdb_123955=T pbc="F F F"
C        0.00400000       1.37610000       0.02570000
C        1.43450000       1.92270000       0.04440000
O        2.14960000       1.51950000       1.22220000
C        1.91610000       0.21180000       1.46300000
N        2.61500000      -0.56130000       2.27710000
N        1.98340000      -1.73400000       2.15840000
N        0.93250000      -1.78260000       1.33280000
C        0.87840000      -0.54040000       0.88230000
O       -0.02380000      -0.05900000       0.00080000
H       -0.54260000       1.73490000       0.90750000
H       -0.51370000       1.70970000      -0.87600000
H        1.97620000       1.57700000      -0.84570000
H        1.41940000       3.01440000       0.05220000
H        2.28760000      -2.54570000       2.66620000
