14
Properties=species:S:1:pos:R:3 gdb_130672=T pbc="F F F"
O        0.63490000       0.29590000       0.87670000
C        0.16610000       1.23660000       0.30650000
N       -0.82700000       2.12090000       0.71520000
C       -1.01940000       3.04210000      -0.27830000
N       -0.24980000       2.81680000      -1.29390000
O        0.51920000       1.68010000      -0.94110000
C       -1.97300000       4.16320000      -0.21090000
C       -1.44840000       5.55730000      -0.36660000
N       -2.23710000       4.93660000      -1.42740000
H       -1.28140000       2.07060000       1.61060000
H       -2.84000000       3.98860000       0.42140000
H       -1.94080000       6.36660000       0.16510000
H       -0.37640000       5.66620000      -0.50220000
H       -1.62790000       4.59980000      -2.17120000
