21
Properties=species:S:1:pos:R:3 gdb_7541=T pbc="F F F"
C        0.02610000       1.13330000      -0.46200000
C       -0.04840000      -0.20980000       0.22590000
N        1.16770000      -1.03820000       0.23390000
C        0.61810000      -0.55570000       1.51800000
C        1.48200000       0.44850000       2.25710000
C       -0.08380000      -1.56700000       2.42130000
C        0.80160000      -2.72580000       2.88010000
O        0.97370000      -3.60690000       1.77170000
H        0.99470000       1.61230000      -0.30630000
H       -0.11170000       1.01330000      -1.54240000
H       -0.75840000       1.80610000      -0.09730000
H       -0.99060000      -0.73140000       0.05220000
H        0.95100000      -2.02530000       0.12540000
H        2.05240000       1.06720000       1.56300000
H        0.87160000       1.10280000       2.89060000
H        2.20470000      -0.06000000       2.90600000
H       -0.47460000      -1.05210000       3.30770000
H       -0.94550000      -2.00650000       1.90540000
H        1.77150000      -2.35300000       3.24040000
H        0.31880000      -3.25240000       3.71780000
H        1.69260000      -4.21340000       1.97020000
