23
Properties=species:S:1:pos:R:3 gdb_111209=T pbc="F F F"
C       -0.10110000       1.73220000      -0.28680000
C       -0.00110000       0.22490000      -0.01880000
C       -1.36760000      -0.45280000      -0.02900000
C       -2.13710000      -0.76740000      -1.35760000
C       -1.14780000      -1.94580000      -1.59170000
C       -1.52800000      -2.00980000      -0.08190000
C       -3.00550000      -1.79640000      -0.54890000
C       -4.12320000      -1.37000000       0.38990000
O       -5.30400000      -1.02930000      -0.32980000
H        0.88020000       2.21290000      -0.22710000
H       -0.50940000       1.93130000      -1.28350000
H       -0.75640000       2.22230000       0.44210000
H        0.68520000      -0.22520000      -0.74240000
H        0.45300000       0.06310000       0.96810000
H       -1.98610000       0.02940000       0.73350000
H       -2.48910000      -0.05280000      -2.10590000
H       -1.51350000      -2.76550000      -2.21590000
H       -0.11680000      -1.69890000      -1.84360000
H       -1.17370000      -2.73350000       0.65540000
H       -3.38570000      -2.61260000      -1.17360000
H       -4.40440000      -2.21940000       1.02290000
H       -3.82840000      -0.55490000       1.06450000
H       -5.08540000      -0.29150000      -0.90800000
