20
Properties=species:S:1:pos:R:3 gdb_109880=T pbc="F F F"
C        0.23720000       1.38580000       0.11850000
O       -0.22520000       0.09910000      -0.24990000
C        0.56990000      -0.51180000      -1.21950000
C        1.97020000      -1.12530000      -0.77120000
O        2.25890000      -1.08090000       0.59550000
C        1.47100000      -2.47070000      -1.31730000
N        0.30760000      -2.77320000      -0.44550000
C        0.12160000      -1.90900000      -1.64060000
C       -0.86610000      -2.24810000      -2.71360000
H        1.23800000       1.33940000       0.56390000
H        0.26080000       2.06660000      -0.74750000
H       -0.46700000       1.78010000       0.85500000
H        0.70020000       0.13850000      -2.10030000
H        2.82030000      -0.70130000      -1.30900000
H        1.52090000      -1.54480000       1.01810000
H        2.02810000      -3.26330000      -1.80260000
H       -0.02930000      -3.70350000      -0.68910000
H       -1.88820000      -2.02220000      -2.39030000
H       -0.66820000      -1.67180000      -3.62350000
H       -0.82120000      -3.31180000      -2.97220000
