19
Properties=species:S:1:pos:R:3 gdb_99301=T pbc="F F F"
C       -0.23230000       1.32430000       0.07720000
N        0.30670000      -0.02280000       0.04710000
C        0.65010000      -0.60280000      -1.15680000
O        0.69190000       0.01400000      -2.20870000
N        0.94630000      -1.95000000      -1.06290000
C        1.52200000      -2.65930000      -2.19020000
C        0.96070000      -4.05490000      -2.28000000
C        1.78870000      -5.19780000      -2.67680000
O        1.45430000      -4.98470000      -1.30400000
H        0.17520000       1.86300000      -0.77830000
H       -1.32820000       1.34610000       0.00570000
H        0.06930000       1.82850000       0.99990000
H        0.03550000      -0.63840000       0.79730000
H        1.14160000      -2.33750000      -0.15280000
H        1.27620000      -2.08000000      -3.08370000
H        2.61760000      -2.71610000      -2.11720000
H       -0.11680000      -4.11340000      -2.43680000
H        1.32370000      -6.06450000      -3.14380000
H        2.83580000      -5.04010000      -2.93270000
