16
Properties=species:S:1:pos:R:3 gdb_8567=T pbc="F F F"
O        0.03290000       0.09740000       0.57800000
C       -0.02340000       1.18650000       0.08000000
C       -1.33290000       1.94140000      -0.17140000
C       -1.09690000       3.30720000      -0.81840000
C       -0.08870000       3.12010000      -1.99050000
C        0.99640000       3.12790000      -0.89020000
C        0.05480000       4.01630000      -0.04630000
O        1.12040000       1.82050000      -0.29660000
H       -1.96030000       1.29640000      -0.79640000
H       -1.84300000       2.02960000       0.79420000
H       -2.02710000       3.84870000      -0.99940000
H       -0.16550000       2.22490000      -2.61310000
H       -0.01960000       4.00840000      -2.62240000
H        2.01500000       3.44450000      -1.11120000
H        0.15010000       5.06920000      -0.32140000
H        0.10400000       3.90910000       1.04050000
