18
Properties=species:S:1:pos:R:3 gdb_22539=T pbc="F F F"
C       -0.03180000       1.49170000      -0.01600000
C        0.02400000      -0.00930000       0.06070000
N        0.11040000      -0.67320000       1.14700000
O        0.15030000       0.16830000       2.26690000
C        0.00900000      -0.82060000      -1.22660000
C        0.16280000      -2.34730000      -1.01940000
O        0.24090000      -3.02710000      -2.25450000
C       -1.20360000      -0.54630000      -2.00290000
C       -2.20830000      -0.37430000      -2.64180000
H        0.91200000       1.92300000       0.33530000
H       -0.22240000       1.82890000      -1.03580000
H       -0.81610000       1.87640000       0.64200000
H        0.19820000      -0.46240000       2.99340000
H        0.86880000      -0.49470000      -1.83200000
H        1.09700000      -2.54310000      -0.48960000
H       -0.66050000      -2.71340000      -0.39310000
H       -0.57960000      -2.85220000      -2.73040000
H       -3.09240000      -0.19910000      -3.20410000
