22
Properties=species:S:1:pos:R:3 gdb_18638=T pbc="F F F"
C       -0.15770000       1.69440000      -0.19150000
C        0.08850000       0.20290000      -0.07570000
C        1.38820000      -0.51050000      -0.37550000
C        2.70510000       0.25940000      -0.33030000
C        2.76840000       0.93320000       1.06350000
C        1.79240000       0.14590000       1.97710000
C        1.15610000       0.99090000       3.08560000
C        0.81380000      -0.54300000       1.02810000
H        0.70720000       2.30370000       0.07290000
H       -0.43170000       1.95110000      -1.22150000
H       -0.98840000       2.00400000       0.45290000
H       -0.77310000      -0.36270000      -0.42770000
H        1.34720000      -1.38240000      -1.02090000
H        3.52880000      -0.45430000      -0.44580000
H        2.80820000       0.98750000      -1.14330000
H        3.78450000       0.93480000       1.46980000
H        2.46660000       1.98300000       1.00570000
H        2.36060000      -0.66160000       2.46030000
H        0.56720000       1.81440000       2.66920000
H        0.48930000       0.38790000       3.71120000
H        1.92170000       1.42380000       3.73920000
H        0.32660000      -1.43690000       1.40680000
