19
Properties=species:S:1:pos:R:3 gdb_91858=T pbc="F F F"
C       -0.16010000       1.42970000      -0.08250000
C        0.01650000      -0.08640000      -0.12190000
C        1.07210000      -0.58040000      -1.15290000
C        1.67170000      -1.84140000      -0.55000000
O        2.61840000      -1.59810000       0.48090000
C        1.27310000      -1.92140000       0.88400000
C        0.42570000      -0.71610000       1.24000000
C        1.13180000      -3.23900000       1.55820000
O        0.22450000      -3.53070000       2.29680000
H        0.77650000       1.92470000       0.19940000
H       -0.46500000       1.82110000      -1.05880000
H       -0.92450000       1.72080000       0.64550000
H       -0.94230000      -0.53820000      -0.40640000
H        0.62520000      -0.77710000      -2.13170000
H        1.86980000       0.15740000      -1.29640000
H        1.86670000      -2.72330000      -1.15710000
H        1.02250000      -0.02070000       1.84030000
H       -0.43820000      -1.01820000       1.83660000
H        1.95210000      -3.94840000       1.31070000
