13
Properties=species:S:1:pos:R:3 gdb_26907=T pbc="F F F"
N        0.04980000       1.35430000       0.13960000
C       -0.03600000       0.00230000       0.05360000
C       -1.21510000      -0.71210000       0.02900000
O       -2.39430000      -0.01540000       0.04380000
N       -1.21600000      -2.04070000      -0.01190000
C       -0.08490000      -2.70700000      -0.02670000
C        1.21020000      -2.08020000      -0.00700000
O        2.30930000      -2.56020000      -0.02270000
O        1.12530000      -0.64430000       0.03110000
H        0.92780000       1.77940000      -0.11330000
H       -0.79110000       1.87080000      -0.06390000
H       -3.09890000      -0.67330000      -0.00080000
H       -0.10880000      -3.78970000      -0.06100000
