25
Properties=species:S:1:pos:R:3 gdb_87676=T pbc="F F F"
C        0.05900000       1.49680000      -0.22830000
C        0.10010000      -0.00740000      -0.08110000
C        1.41740000      -0.74900000      -0.14460000
C        0.66330000      -0.66560000       1.15140000
C        1.07740000       0.02910000       2.45500000
C        0.15830000      -0.96810000       3.24190000
C        0.81900000      -1.68530000       4.41490000
C       -1.16200000      -0.32170000       3.66330000
C        0.00950000      -1.81290000       1.92970000
H        0.93680000       1.96450000       0.22940000
H        0.04340000       1.78960000      -1.28410000
H       -0.83030000       1.92560000       0.24850000
H       -0.74740000      -0.52440000      -0.52790000
H        1.45470000      -1.70530000      -0.65800000
H        2.32300000      -0.15620000      -0.24350000
H        2.13920000      -0.09740000       2.69190000
H        0.82590000       1.08970000       2.55570000
H        1.03300000      -0.98920000       5.23480000
H        0.17020000      -2.47530000       4.81180000
H        1.76490000      -2.14950000       4.11570000
H       -1.63780000       0.19450000       2.82260000
H       -1.86740000      -1.07380000       4.03580000
H       -1.00370000       0.41380000       4.46080000
H       -1.01280000      -2.08350000       1.64490000
H        0.61760000      -2.72400000       1.94460000
