20
Properties=species:S:1:pos:R:3 gdb_110234=T pbc="F F F"
C        0.36770000       1.33070000       0.31910000
C       -0.18830000      -0.03620000      -0.09700000
C        0.53110000      -0.61670000      -1.29780000
C        1.94720000      -1.22150000      -1.25160000
C        2.05120000      -2.06410000       0.00710000
O        2.74470000      -2.08880000       0.98460000
N        0.95800000      -2.86360000      -0.38150000
C        0.72870000      -2.07370000      -1.60540000
C        0.36780000      -2.76700000      -2.88380000
H        1.42130000       1.24980000       0.60340000
H        0.29510000       2.05560000      -0.49900000
H       -0.18320000       1.73510000       1.17340000
H       -0.12370000      -0.72780000       0.74980000
H       -1.25510000       0.05470000      -0.33960000
H        0.40420000      -0.02060000      -2.20270000
H        2.75600000      -0.87020000      -1.87720000
H        0.22510000      -3.14240000       0.26230000
H       -0.66350000      -3.13780000      -2.85420000
H        0.44610000      -2.07970000      -3.73130000
H        1.02840000      -3.62100000      -3.06110000
