12
Properties=species:S:1:pos:R:3 gdb_132247=T pbc="F F F"
F        0.00490000       0.04830000       0.00320000
C       -0.01350000       1.37380000       0.01040000
C       -1.25070000       2.01140000       0.03070000
C       -1.23600000       3.40580000       0.03780000
C       -0.00550000       4.07740000       0.02440000
C        1.15160000       3.31230000       0.00450000
N        1.15440000       1.97380000      -0.00250000
C       -2.46530000       4.13990000       0.05850000
N       -3.45540000       4.73790000       0.07530000
H       -2.17160000       1.44400000       0.04040000
H        0.03730000       5.15860000       0.02940000
H        2.12620000       3.79130000      -0.00640000
