17
Properties=species:S:1:pos:R:3 gdb_50296=T pbc="F F F"
O       -0.73770000       0.98730000       0.75600000
C        0.21460000       0.73670000       0.06330000
C        1.44620000       1.62130000      -0.01650000
O        2.58750000       0.86690000      -0.41470000
C        3.12680000       1.53760000      -1.60460000
C        2.86430000       3.01100000      -1.26820000
C        1.34210000       2.74810000      -1.11330000
C        1.05270000       2.03640000      -2.42590000
C        2.13320000       1.30750000      -2.73120000
H        0.26460000      -0.16810000      -0.58000000
H        1.60890000       2.07730000       0.96800000
H        4.15030000       1.19450000      -1.73920000
H        3.36140000       3.33560000      -0.35010000
H        3.08540000       3.69260000      -2.09060000
H        0.69300000       3.57500000      -0.83270000
H        0.09800000       2.05320000      -2.93610000
H        2.25240000       0.59560000      -3.53720000
