19
Properties=species:S:1:pos:R:3 gdb_42335=T pbc="F F F"
O        0.16990000      -0.10610000      -0.04630000
C        0.08960000       1.10210000      -0.03160000
C        1.28910000       1.98750000       0.02780000
C        2.46430000       1.50050000       0.86730000
C        2.56810000       1.47670000      -0.61790000
C       -1.24860000       1.82900000      -0.10510000
C       -1.65200000       2.27950000      -1.53900000
C       -2.80020000       1.26520000      -1.35490000
O       -2.38410000       0.96730000      -0.00590000
H        1.10560000       3.05650000       0.00440000
H        3.01740000       2.24890000       1.42290000
H        2.31350000       0.55400000       1.37350000
H        2.48790000       0.51260000      -1.10680000
H        3.19830000       2.20660000      -1.11280000
H       -1.26940000       2.62560000       0.65240000
H       -1.95850000       3.32270000      -1.62040000
H       -0.93210000       2.04920000      -2.32580000
H       -3.81430000       1.67970000      -1.38690000
H       -2.75190000       0.37970000      -1.99890000
