25
Properties=species:S:1:pos:R:3 gdb_115381=T pbc="F F F"
C        0.04440000       1.63370000       0.13200000
C        0.05380000       0.10310000       0.04430000
C        0.68960000      -0.46570000      -1.23300000
C        0.85330000      -1.99210000      -1.15890000
C        1.43110000      -2.54150000      -2.47020000
C        0.62500000      -2.07050000      -3.69280000
C       -0.71330000      -2.79940000      -3.86930000
O        0.46860000      -0.65060000      -3.67530000
C       -0.11420000      -0.12220000      -2.49450000
H        1.05780000       2.04000000       0.03950000
H       -0.56660000       2.08770000      -0.65440000
H       -0.36050000       1.96760000       1.09250000
H        0.59850000      -0.30020000       0.90780000
H       -0.97360000      -0.27660000       0.13570000
H        1.68910000      -0.02210000      -1.35400000
H        1.50240000      -2.26360000      -0.31810000
H       -0.12410000      -2.44920000      -0.95080000
H        2.46170000      -2.18350000      -2.58170000
H        1.47240000      -3.63660000      -2.45240000
H        1.22130000      -2.25230000      -4.59420000
H       -1.35000000      -2.73860000      -2.98220000
H       -1.26180000      -2.36990000      -4.71230000
H       -0.53710000      -3.85980000      -4.07680000
H       -1.15240000      -0.47560000      -2.37140000
H       -0.15720000       0.95820000      -2.65790000
