18
Properties=species:S:1:pos:R:3 gdb_127375=T pbc="F F F"
C       -0.46350000       1.38720000      -0.03550000
N       -0.09960000      -0.02170000       0.04720000
C        1.26290000      -0.36880000      -0.32010000
C        0.83910000      -0.44040000       1.11070000
C        1.35840000       0.49120000       2.13570000
C        0.89050000       0.77450000       3.40780000
C        1.78840000       1.72920000       3.92480000
N        2.75190000       2.02600000       3.05590000
N        2.46600000       1.26800000       1.98150000
H        0.36040000       2.08150000       0.18970000
H       -0.82020000       1.59200000      -1.04950000
H       -1.28010000       1.59040000       0.66350000
H        1.39500000      -1.28120000      -0.89560000
H        1.92680000       0.44410000      -0.61620000
H        0.58460000      -1.41920000       1.51060000
H        0.02020000       0.34960000       3.88170000
H        1.77430000       2.21160000       4.89120000
H        3.09400000       1.27970000       1.19580000
