18
Properties=species:S:1:pos:R:3 gdb_115092=T pbc="F F F"
O       -0.08490000       1.52710000      -0.19440000
C        0.03060000       0.13130000      -0.07810000
C       -1.34660000      -0.57530000       0.03830000
C       -1.25240000      -2.11080000      -0.10450000
C       -1.04810000      -2.81990000       1.20640000
C       -1.42130000      -2.25180000       2.35090000
N       -1.96450000      -0.95950000       2.39410000
C       -1.96450000      -0.08370000       1.34190000
O       -2.35340000       1.06880000       1.47630000
H       -0.79480000       1.80750000       0.40310000
H        0.52660000      -0.23170000      -0.98620000
H        0.66440000      -0.16170000       0.77730000
H       -1.96380000      -0.16220000      -0.76460000
H       -2.17070000      -2.48940000      -0.57600000
H       -0.44450000      -2.35610000      -0.80450000
H       -0.63770000      -3.82200000       1.21500000
H       -1.33330000      -2.73450000       3.31640000
H       -2.27280000      -0.57180000       3.27340000
