17
Properties=species:S:1:pos:R:3 gdb_127972=T pbc="F F F"
C       -0.24380000       1.42950000       0.19250000
N       -0.24940000      -0.02400000       0.16910000
C        0.64800000      -0.64390000       0.81800000
O        1.61370000       0.05130000       1.53420000
N        2.62940000      -0.57170000       2.26980000
C        2.65790000      -1.86080000       2.27370000
C        3.76130000      -2.49410000       3.07340000
C        1.69980000      -2.68590000       1.56130000
C        0.72730000      -2.08870000       0.85700000
H        0.69110000       1.84230000      -0.21010000
H       -1.07600000       1.79800000      -0.41140000
H       -0.34920000       1.82350000       1.21230000
H        4.38010000      -1.72500000       3.53670000
H        3.34740000      -3.14020000       3.85570000
H        4.39020000      -3.12140000       2.43170000
H        1.79270000      -3.76490000       1.61510000
H       -0.02760000      -2.62660000       0.29720000
