17
Properties=species:S:1:pos:R:3 gdb_12528=T pbc="F F F"
C       -0.58210000       1.29250000       0.11790000
C        0.12240000      -0.05480000       0.09730000
O        0.52820000      -0.26600000      -1.27610000
C        1.07070000      -1.45490000      -1.63940000
N        1.54120000      -2.43300000      -0.99740000
C        1.70620000      -2.52740000       0.44820000
C        1.98690000      -1.25080000       1.21250000
C        1.28640000      -0.13190000       1.05300000
H        0.11610000       2.09050000      -0.15270000
H       -1.41370000       1.30360000      -0.59030000
H       -0.97090000       1.49610000       1.12010000
H       -0.59990000      -0.84760000       0.34060000
H        1.06910000      -1.50180000      -2.72980000
H        0.82330000      -3.03130000       0.87410000
H        2.53390000      -3.22500000       0.61480000
H        2.81450000      -1.27470000       1.91760000
H        1.53690000       0.76680000       1.61030000
