21
Properties=species:S:1:pos:R:3 gdb_41469=T pbc="F F F"
C        0.03780000       1.47470000       0.33640000
C        1.53700000       1.58480000      -0.09500000
C        1.48180000       0.13460000      -0.61740000
C        2.13720000      -0.39370000      -1.88100000
C        1.93500000      -1.92130000      -1.78080000
C        2.11760000      -2.22640000      -0.27700000
C        1.54740000      -1.00370000       0.44440000
O        0.10130000      -1.03190000       0.58520000
C       -0.04430000       0.07030000      -0.32680000
H       -0.13970000       1.43630000       1.41330000
H       -0.61810000       2.22980000      -0.10350000
H        1.68710000       2.31240000      -0.89800000
H        2.26860000       1.79080000       0.69190000
H        1.71250000       0.03560000      -2.79440000
H        3.20790000      -0.14690000      -1.87560000
H        0.91660000      -2.17930000      -2.09150000
H        2.62100000      -2.48800000      -2.41580000
H        1.62990000      -3.15040000       0.04570000
H        3.18490000      -2.31040000      -0.03660000
H        2.03360000      -0.79480000       1.40440000
H       -0.82890000      -0.10270000      -1.06950000
