18
Properties=species:S:1:pos:R:3 gdb_125955=T pbc="F F F"
C       -0.00750000       1.58070000       0.04300000
C        0.02590000       0.05770000       0.04460000
C        0.74050000      -0.58960000      -1.18180000
C        1.52880000      -1.82850000      -0.65180000
C        1.64040000      -1.51390000       0.80590000
N        2.25880000      -1.96850000       1.88180000
C        1.75440000      -1.15190000       2.85510000
N        0.87390000      -0.23890000       2.45170000
N        0.83210000      -0.49220000       1.12740000
H        1.00310000       1.98990000      -0.05130000
H       -0.60960000       1.94150000      -0.79620000
H       -0.44510000       1.95600000       0.97140000
H       -0.99780000      -0.32730000       0.14160000
H        0.03010000      -0.84910000      -1.96880000
H        1.44350000       0.13790000      -1.59900000
H        0.97330000      -2.76130000      -0.80260000
H        2.49840000      -1.94870000      -1.14020000
H        2.04740000      -1.22810000       3.89200000
