17
Properties=species:S:1:pos:R:3 gdb_20856=T pbc="F F F"
C        0.09540000       1.35910000      -0.55560000
C       -0.10740000       0.14680000       0.36740000
C       -1.45790000      -0.48530000       0.21260000
N       -2.31690000      -0.45340000       1.20430000
O       -3.46080000      -1.10620000       0.73830000
C       -3.25520000      -1.51470000      -0.52700000
C       -4.37370000      -2.23830000      -1.18950000
C       -2.00610000      -1.15300000      -0.92310000
H        1.09260000       1.78650000      -0.41550000
H       -0.00590000       1.08070000      -1.60940000
H       -0.64300000       2.13770000      -0.34270000
H        0.66480000      -0.60400000       0.15970000
H        0.00890000       0.44550000       1.41310000
H       -4.63420000      -3.14720000      -0.63710000
H       -5.27170000      -1.61350000      -1.23540000
H       -4.09270000      -2.51810000      -2.20640000
H       -1.54090000      -1.33590000      -1.87780000
