16
Properties=species:S:1:pos:R:3 gdb_6697=T pbc="F F F"
C       -0.04470000       1.47290000       0.02200000
N        0.03130000       0.01940000       0.02890000
C        0.82470000      -0.47600000       1.14600000
C       -1.30350000      -0.56850000      -0.00840000
C       -1.28440000      -2.00700000      -0.25310000
C       -1.29180000      -3.19880000      -0.44890000
C       -1.29720000      -4.54610000      -0.67080000
N       -1.30230000      -5.69270000      -0.85740000
H        0.96670000       1.88710000      -0.01300000
H       -0.58290000       1.81540000      -0.86750000
H       -0.55210000       1.88800000       0.91380000
H        0.39800000      -0.20710000       2.13110000
H        0.90450000      -1.56470000       1.09350000
H        1.83290000      -0.05700000       1.08640000
H       -1.88000000      -0.38270000       0.92200000
H       -1.86850000      -0.09090000      -0.81900000
