23
Properties=species:S:1:pos:R:3 gdb_94849=T pbc="F F F"
C       -0.39220000       1.42150000       0.11000000
C        0.09420000      -0.02550000       0.11890000
C        0.66260000      -0.52150000      -1.22910000
C        1.59360000      -1.71310000      -0.87570000
C        1.73650000      -1.71200000       0.66530000
C        1.09790000      -2.88530000       1.45630000
O        2.33700000      -3.16800000       2.13280000
C        3.04500000      -2.21830000       1.31120000
C        1.24950000      -0.31990000       1.08860000
H        0.42380000       2.10620000      -0.15040000
H       -1.19460000       1.56830000      -0.62110000
H       -0.77810000       1.72070000       1.09030000
H       -0.74930000      -0.67480000       0.39670000
H       -0.12380000      -0.79290000      -1.93930000
H        1.24080000       0.28630000      -1.69360000
H        1.19210000      -2.66800000      -1.22880000
H        2.57410000      -1.59800000      -1.34970000
H        0.29440000      -2.62390000       2.15730000
H        0.76950000      -3.73280000       0.83780000
H        3.73850000      -2.71510000       0.61760000
H        3.60350000      -1.48890000       1.91190000
H        2.05220000       0.41610000       0.93420000
H        0.96420000      -0.27150000       2.14450000
