13
Properties=species:S:1:pos:R:3 gdb_99442=T pbc="F F F"
C       -0.02160000       1.38950000      -0.15530000
O       -0.01200000       0.01210000       0.20620000
C       -1.27240000      -0.60050000       0.11160000
C       -1.73300000      -0.71730000      -1.29810000
N       -2.08260000      -0.76280000      -2.39760000
C       -1.20550000      -1.92230000       0.73560000
C       -1.17720000      -3.00240000       1.26910000
C       -1.13750000      -4.22730000       1.87340000
N       -1.10560000      -5.26650000       2.38980000
H        0.99620000       1.74910000      -0.00170000
H       -0.30250000       1.52820000      -1.20670000
H       -0.71070000       1.96130000       0.48200000
H       -2.03650000      -0.00580000       0.64450000
