17
Properties=species:S:1:pos:R:3 gdb_47044=T pbc="F F F"
O       -0.06390000      -0.07120000       0.01290000
C       -0.02070000       1.10980000       0.20620000
C       -1.19550000       2.05820000       0.02050000
C       -1.27580000       3.09320000       1.13450000
O       -1.40720000       2.48530000       2.43710000
C       -0.18200000       3.09220000       2.90470000
C        0.09100000       3.70870000       1.51610000
C        1.23210000       3.10730000       0.71490000
O        1.14360000       1.67720000       0.63150000
H       -1.08740000       2.57540000      -0.94280000
H       -2.10240000       1.45280000      -0.03010000
H       -2.08530000       3.80830000       0.94420000
H       -0.36550000       3.81640000       3.70690000
H        0.53990000       2.34260000       3.24730000
H        0.14900000       4.79860000       1.48790000
H        1.25420000       3.53320000      -0.29760000
H        2.20140000       3.30470000       1.18030000
