14
Properties=species:S:1:pos:R:3 gdb_25851=T pbc="F F F"
N       -0.08520000       1.31780000       0.00790000
C        0.05810000      -0.02680000       0.00240000
O        1.12180000      -0.62000000      -0.00820000
C       -1.25720000      -0.77760000       0.01030000
N       -2.39480000      -0.07240000       0.02110000
C       -3.52640000      -0.77670000       0.02780000
N       -3.64150000      -2.10500000       0.02470000
C       -2.49390000      -2.79030000       0.01390000
C       -1.25220000      -2.16730000       0.00620000
H        0.73420000       1.90020000       0.00180000
H       -1.01110000       1.71450000       0.01510000
H       -4.45280000      -0.20770000       0.03650000
H       -2.57760000      -3.87440000       0.01130000
H       -0.31440000      -2.70680000      -0.00260000
