19
Properties=species:S:1:pos:R:3 gdb_13110=T pbc="F F F"
C        0.01870000       1.53840000       0.20840000
C       -0.07230000       0.03040000      -0.03890000
C        0.86910000      -0.45070000      -1.14820000
C        0.75610000      -1.94700000      -1.41570000
N       -0.51070000      -2.39890000      -2.06920000
C        0.20840000      -3.15830000      -3.12750000
C        1.51460000      -2.52080000      -2.62650000
O        2.63860000      -2.45740000      -3.02410000
H        1.03270000       1.83150000       0.50230000
H       -0.23910000       2.10240000      -0.69460000
H       -0.66350000       1.85380000       1.00400000
H        0.15600000      -0.50990000       0.89000000
H       -1.10070000      -0.23870000      -0.30940000
H        0.64910000       0.08850000      -2.07770000
H        1.91170000      -0.22690000      -0.88760000
H        1.01000000      -2.51360000      -0.50490000
H       -1.09150000      -2.98060000      -1.47760000
H        0.21370000      -4.25170000      -3.01590000
H       -0.09230000      -2.91380000      -4.15220000
