16
Properties=species:S:1:pos:R:3 gdb_79553=T pbc="F F F"
C       -0.19160000       1.44940000      -0.15400000
N        0.09810000       0.02870000       0.00590000
C        1.42060000      -0.53500000      -0.16590000
C        2.52890000       0.33140000       0.41810000
O        3.09730000      -0.35180000       1.53820000
C        1.84920000       0.35000000       1.74170000
C        1.77990000       1.35620000       2.74430000
C        1.67400000       2.19300000       3.60140000
C        0.72440000      -0.52800000       1.18400000
H        0.56490000       2.12620000       0.26220000
H       -0.30040000       1.65980000      -1.22220000
H       -1.14760000       1.66320000       0.33290000
H        1.55740000      -1.36780000      -0.84570000
H        3.12960000       1.10610000      -0.04300000
H        1.59190000       2.93380000       4.35820000
H        0.24550000      -1.34540000       1.70990000
