21
Properties=species:S:1:pos:R:3 gdb_114748=T pbc="F F F"
C        0.10360000       1.51200000      -0.03280000
O       -0.12890000       0.12640000      -0.08940000
C        0.62290000      -0.54830000      -1.08040000
C        2.08260000      -0.83810000      -0.62580000
C        2.04510000      -2.25310000      -0.08640000
O        0.98040000      -2.48520000       0.84470000
C        0.80460000      -2.90400000      -0.51520000
C       -0.02110000      -1.94240000      -1.35210000
C       -1.52770000      -2.01250000      -1.09720000
H        1.13820000       1.75780000       0.25150000
H       -0.10920000       1.99990000      -0.99800000
H       -0.56840000       1.92090000       0.72580000
H        0.61520000       0.05770000      -1.99930000
H        2.77610000      -0.78990000      -1.47440000
H        2.42130000      -0.11100000       0.11810000
H        2.96480000      -2.79970000       0.10960000
H        0.71800000      -3.97820000      -0.66640000
H        0.17570000      -2.19300000      -2.40440000
H       -1.74710000      -1.81110000      -0.04750000
H       -2.06680000      -1.27700000      -1.70150000
H       -1.91110000      -3.00590000      -1.35280000
