23
Properties=species:S:1:pos:R:3 gdb_99700=T pbc="F F F"
C       -0.06400000       1.53440000       0.10110000
C       -0.04730000       0.01100000      -0.02730000
C        0.74570000      -0.50950000      -1.24840000
C        2.14820000      -0.08800000      -1.20490000
C        3.31480000       0.20990000      -1.13070000
C        4.71580000       0.60570000      -1.06260000
C        0.66800000      -2.06110000      -1.34320000
C        1.19880000      -2.60030000      -2.67170000
O        1.31660000      -2.66890000      -0.23600000
H        0.94980000       1.93230000       0.20460000
H       -0.51750000       2.00380000      -0.77950000
H       -0.64100000       1.84560000       0.97740000
H        0.37540000      -0.44640000       0.87260000
H       -1.07470000      -0.36380000      -0.11530000
H        0.28300000      -0.09980000      -2.15820000
H        5.35040000      -0.06660000      -1.65030000
H        4.85870000       1.61940000      -1.45280000
H        5.08540000       0.59320000      -0.03140000
H       -0.38740000      -2.33990000      -1.23910000
H        2.24070000      -2.29890000      -2.82300000
H        1.14990000      -3.69230000      -2.67410000
H        0.61090000      -2.22330000      -3.51560000
H        2.22280000      -2.33370000      -0.23010000
