14
Properties=species:S:1:pos:R:3 gdb_125726=T pbc="F F F"
C       -0.11150000       1.53560000       0.06850000
C       -0.01170000       0.04360000      -0.03500000
N        0.21770000      -0.45540000      -1.19840000
O        0.30800000      -1.87780000      -1.26910000
C        0.16720000      -2.69640000      -0.19980000
O        0.25580000      -3.88500000      -0.33520000
C       -0.10080000      -2.06360000       1.14320000
N       -0.25240000      -2.71310000       2.22090000
N       -0.17150000      -0.68300000       1.11410000
H        0.64920000       1.92560000       0.75310000
H        0.03570000       1.97490000      -0.91720000
H       -1.09490000       1.83000000       0.45010000
H       -0.16210000      -3.70950000       2.01570000
H       -0.34970000      -0.21780000       1.99350000
