23
Properties=species:S:1:pos:R:3 gdb_114206=T pbc="F F F"
C        0.35260000       1.49780000       0.11440000
C        0.14450000      -0.01960000       0.06490000
C        0.47270000      -0.58860000      -1.30530000
O        1.87430000      -0.40830000      -1.65080000
C        2.04070000      -1.81010000      -1.85530000
C        2.91990000      -2.34080000      -2.93760000
C        3.30470000      -2.50830000      -1.47160000
C        0.58520000      -2.12920000      -1.51210000
C        0.31680000      -3.06960000      -0.34450000
H        1.38450000       1.74770000      -0.14750000
H       -0.30740000       2.01200000      -0.59330000
H        0.14650000       1.89400000       1.11310000
H        0.77260000      -0.50210000       0.82180000
H       -0.89750000      -0.26790000       0.30650000
H       -0.16060000      -0.10400000      -2.06220000
H        2.59570000      -3.21590000      -3.49250000
H        3.47760000      -1.61450000      -3.51930000
H        4.11130000      -1.88880000      -1.09410000
H        3.24630000      -3.49750000      -1.02840000
H        0.01600000      -2.45890000      -2.38650000
H        0.90690000      -2.80640000       0.53730000
H       -0.74130000      -3.06030000      -0.06300000
H        0.57310000      -4.09920000      -0.61720000
