19
Properties=species:S:1:pos:R:3 gdb_119943=T pbc="F F F"
C        0.53350000       1.38570000      -0.08300000
O        0.69060000      -0.01030000      -0.15110000
C       -0.12100000      -0.59940000      -1.14660000
C        0.10790000      -2.08510000      -1.12620000
C       -0.17220000      -2.92460000      -2.33920000
O       -0.61510000      -2.31930000      -3.51120000
C        1.27480000      -2.72070000      -1.89430000
C        2.10870000      -1.93940000      -2.75450000
C        2.75910000      -1.31140000      -3.55110000
H        0.80800000       1.87580000      -1.03070000
H       -0.50280000       1.67120000       0.16040000
H        1.19400000       1.75160000       0.70700000
H       -1.18620000      -0.38880000      -0.94850000
H        0.11100000      -0.18540000      -2.13750000
H       -0.09090000      -2.54870000      -0.16440000
H       -0.59550000      -3.91480000      -2.18640000
H        0.15760000      -2.11390000      -4.05450000
H        1.76390000      -3.56240000      -1.41430000
H        3.36650000      -0.74130000      -4.20990000
