18
Properties=species:S:1:pos:R:3 gdb_42829=T pbc="F F F"
O       -0.02020000       0.00570000       0.11400000
C       -0.03230000       1.20020000       0.02930000
C       -1.11920000       2.28270000       0.06010000
C       -0.02970000       3.16910000       0.75310000
C        1.04490000       2.31380000       0.01940000
N        1.24410000       2.89800000      -1.32030000
C        0.95610000       2.03730000      -2.47640000
C       -0.01200000       3.09620000      -2.07140000
C       -1.34400000       2.78180000      -1.38600000
H       -2.05810000       2.06890000       0.57310000
H       -0.02710000       4.23290000       0.50760000
H       -0.00750000       3.02770000       1.83530000
H        2.01230000       2.11340000       0.48300000
H        1.59840000       2.19500000      -3.33830000
H        0.69170000       0.99820000      -2.29620000
H       -0.01220000       4.01130000      -2.65900000
H       -1.91680000       2.04240000      -1.95730000
H       -1.95080000       3.69310000      -1.34660000
