19
Properties=species:S:1:pos:R:3 gdb_71125=T pbc="F F F"
C       -0.06830000       1.48140000       0.06880000
C        0.04920000      -0.02070000      -0.05170000
C        0.59120000      -0.58170000      -1.38930000
C        0.07740000      -2.00800000      -1.32390000
C        0.16730000      -2.61160000       0.07110000
C        1.00130000      -1.88470000       1.10940000
O        0.87530000      -0.46290000       1.01150000
C       -1.09670000      -1.93430000      -0.37940000
O       -1.24680000      -0.60810000       0.07580000
H        0.91790000       1.94230000      -0.02330000
H       -0.72410000       1.87080000      -0.71280000
H       -0.48430000       1.73720000       1.04570000
H        0.15930000      -0.05030000      -2.24350000
H        1.67940000      -0.48880000      -1.42760000
H        0.08050000      -2.64400000      -2.20030000
H        0.16730000      -3.69410000       0.15050000
H        0.68610000      -2.18040000       2.11890000
H        2.06320000      -2.15140000       1.00600000
H       -2.03970000      -2.44980000      -0.50830000
