18
Properties=species:S:1:pos:R:3 gdb_85331=T pbc="F F F"
O       -0.17350000       1.26430000       0.96010000
C        0.01270000       0.15300000       0.09720000
C        0.87320000      -0.93860000       0.76660000
C       -0.13750000      -1.63550000       1.70050000
O        0.05480000      -2.07670000       2.80860000
N       -1.33970000      -1.59970000       1.02410000
C       -2.63110000      -1.14750000       1.59300000
C       -2.66000000       0.00800000       0.54650000
C       -1.34450000      -0.57910000      -0.04180000
H        0.69180000       1.58450000       1.23340000
H        0.40840000       0.47610000      -0.87470000
H        1.25540000      -1.64900000       0.02420000
H        1.72180000      -0.54960000       1.33330000
H       -3.42630000      -1.89030000       1.48710000
H       -2.54690000      -0.85710000       2.64350000
H       -3.51180000       0.00370000      -0.13460000
H       -2.53260000       0.99960000       0.97710000
H       -1.44530000      -1.00700000      -1.04560000
