13
Properties=species:S:1:pos:R:3 gdb_42545=T pbc="F F F"
O        0.04870000       0.07940000      -0.19800000
C       -0.02930000       1.25330000      -0.05850000
C       -1.09780000       2.29390000       0.07030000
C       -0.06610000       3.15520000       0.75830000
N        1.04500000       2.26780000       0.18370000
C        0.93720000       3.06140000      -1.10820000
C       -0.44390000       3.53680000      -0.63610000
C       -1.24000000       4.62600000      -1.10000000
N       -1.86360000       5.51710000      -1.49450000
H       -2.16770000       2.23380000       0.21520000
H       -0.06170000       3.65610000       1.71380000
H        1.66850000       3.87080000      -1.11880000
H        1.01170000       2.45840000      -2.01760000
