25
Properties=species:S:1:pos:R:3 gdb_91913=T pbc="F F F"
C        0.01490000       1.57870000      -0.01180000
C        0.01730000       0.04760000       0.01300000
C        0.67550000      -0.52720000      -1.25610000
C        0.92120000      -2.03540000      -1.20290000
C        2.18660000      -2.56990000      -0.57050000
C        0.86150000      -2.76880000       0.12130000
C        0.50780000      -2.02880000       1.40470000
C        1.26290000      -2.59880000       2.61230000
C        0.70010000      -0.50890000       1.27020000
H        1.03820000       1.97270000       0.00110000
H       -0.47540000       1.96240000      -0.91320000
H       -0.51050000       1.99070000       0.85650000
H       -1.02810000      -0.29530000       0.03250000
H        0.04470000      -0.29330000      -2.12100000
H        1.62480000      -0.00090000      -1.42780000
H        0.56080000      -2.58650000      -2.06620000
H        2.67000000      -3.43290000      -1.01580000
H        2.88080000      -1.84220000      -0.15990000
H        0.47040000      -3.78280000       0.08460000
H       -0.56680000      -2.19350000       1.57570000
H        2.34410000      -2.46590000       2.49520000
H        0.96040000      -2.10010000       3.53980000
H        1.07200000      -3.67090000       2.73010000
H        1.77120000      -0.25960000       1.24780000
H        0.29600000      -0.01990000       2.16530000
