15
Properties=species:S:1:pos:R:3 gdb_28964=T pbc="F F F"
C       -0.03470000       1.52200000       0.00280000
C       -0.00980000       0.01920000       0.01010000
C       -0.02730000      -0.71950000      -1.17580000
N       -0.00640000      -2.05060000      -1.24950000
C        0.03420000      -2.73120000      -0.10160000
C        0.05510000      -2.12020000       1.14550000
C        0.03280000      -0.72370000       1.20280000
C        0.05310000      -0.05700000       2.47000000
N        0.06950000       0.49170000       3.48900000
H        0.85700000       1.93670000       0.48490000
H       -0.07980000       1.90480000      -1.01930000
H       -0.89930000       1.90840000       0.55260000
H       -0.06060000      -0.18910000      -2.12540000
H        0.05070000      -3.81480000      -0.18090000
H        0.08780000      -2.70680000       2.05550000
