23
Properties=species:S:1:pos:R:3 gdb_68398=T pbc="F F F"
C       -0.02580000       1.51880000       0.05890000
C        0.02220000      -0.01630000       0.02430000
C       -1.41890000      -0.53660000      -0.08690000
C        0.97970000      -0.58680000      -1.08420000
C        1.99900000      -1.34140000      -0.20150000
C        2.27270000      -0.31850000       0.93380000
C        0.76960000      -0.61010000       1.25240000
O        0.15580000      -0.27910000       2.45850000
C        1.07870000      -2.07760000       0.80920000
H        0.96820000       1.97120000       0.10550000
H       -0.51930000       1.90420000      -0.84000000
H       -0.59150000       1.86430000       0.92970000
H       -1.90040000      -0.13410000      -0.98480000
H       -1.47050000      -1.62670000      -0.14910000
H       -2.00690000      -0.22320000       0.78130000
H        0.45880000      -1.25500000      -1.77720000
H        1.45040000       0.20670000      -1.67300000
H        2.81410000      -1.85890000      -0.70550000
H        2.93790000      -0.71980000       1.70420000
H        2.57870000       0.69550000       0.66890000
H        0.65970000      -0.67280000       3.17740000
H        0.27070000      -2.70500000       0.42780000
H        1.64690000      -2.62190000       1.56950000
