22
Properties=species:S:1:pos:R:3 gdb_98410=T pbc="F F F"
C       -0.32110000       1.62760000      -0.12330000
C       -0.39920000       0.12800000      -0.39680000
C        0.84120000      -0.42190000      -1.08960000
O        1.76840000       0.31000000      -1.37720000
C        0.88960000      -1.90940000      -1.36930000
C       -0.39480000      -2.70910000      -1.26590000
C        1.95370000      -2.35150000      -2.33470000
N        2.09040000      -2.66830000      -0.93150000
C        3.16410000      -2.03190000      -0.17390000
H        0.53130000       1.86430000       0.51830000
H       -0.19050000       2.18750000      -1.05260000
H       -1.23370000       1.97660000       0.36800000
H       -0.54740000      -0.43770000       0.53350000
H       -1.27470000      -0.11480000      -1.01330000
H       -1.15070000      -2.35090000      -1.97340000
H       -0.18470000      -3.75720000      -1.48920000
H       -0.82370000      -2.66640000      -0.25980000
H        1.73670000      -3.18750000      -2.99630000
H        2.58280000      -1.56630000      -2.74790000
H        3.39730000      -1.00830000      -0.48800000
H        2.89500000      -2.02560000       0.88740000
H        4.05890000      -2.65160000      -0.28990000
