11
Properties=species:S:1:pos:R:3 gdb_198=T pbc="F F F"
O        0.11070000       1.33950000       0.21170000
C        0.07270000      -0.00210000      -0.00160000
C        0.08090000      -0.78260000      -1.13250000
C        0.02190000      -2.14050000      -0.68370000
C       -0.01890000      -2.13340000       0.68520000
N        0.01280000      -0.81110000       1.09440000
H        0.15410000       1.77760000      -0.64320000
H        0.12340000      -0.43040000      -2.15150000
H        0.01140000      -3.01830000      -1.31130000
H       -0.06720000      -2.93240000       1.40580000
H       -0.00480000      -0.47510000       2.04110000
