15
Properties=species:S:1:pos:R:3 gdb_27674=T pbc="F F F"
C        0.01900000       1.50640000       0.09610000
C        0.00470000       0.01850000       0.01140000
C       -0.04650000      -0.76530000      -1.12410000
N       -0.02410000      -2.08800000      -0.66010000
C        0.03290000      -2.02030000       0.69320000
N       -0.00920000      -3.13830000       1.49950000
N        0.06000000      -0.77400000       1.12930000
C       -0.09340000      -0.43670000      -2.48860000
N       -0.13550000      -0.16940000      -3.61790000
H        0.92700000       1.85580000       0.59860000
H       -0.02600000       1.95740000      -0.89760000
H       -0.83290000       1.86550000       0.68290000
H       -0.14080000      -2.91100000      -1.22710000
H        0.53730000      -3.92690000       1.18160000
H        0.19400000      -2.90280000       2.46130000
