19
Properties=species:S:1:pos:R:3 gdb_117455=T pbc="F F F"
C        0.45070000       1.30590000       0.18930000
C       -0.38580000       0.10310000      -0.25000000
N        0.15310000      -0.55980000      -1.43020000
C        0.72490000      -1.78910000      -1.39770000
O        0.81200000      -2.47420000      -0.39030000
C        1.26040000      -2.27750000      -2.74680000
N        1.83030000      -3.58650000      -2.56210000
C        2.40790000      -4.27210000      -3.57420000
O        2.49830000      -3.86660000      -4.71630000
H        1.46880000       0.99830000       0.44440000
H        0.51020000       2.06180000      -0.60140000
H        0.00260000       1.77830000       1.06890000
H       -0.41500000      -0.65520000       0.53460000
H       -1.41790000       0.41170000      -0.45480000
H        0.15370000      -0.05520000      -2.30300000
H        0.44850000      -2.29930000      -3.48600000
H        2.00900000      -1.57220000      -3.13190000
H        1.77690000      -3.94860000      -1.61920000
H        2.79420000      -5.25650000      -3.24450000
