17
Properties=species:S:1:pos:R:3 gdb_10163=T pbc="F F F"
C        0.00550000       1.71870000       0.21570000
C       -0.15450000       0.20270000       0.21430000
N        0.83470000      -0.42650000       1.09170000
C        0.77600000      -1.87640000       1.11970000
C        2.10310000      -2.43020000       1.63950000
O        2.21710000      -3.41090000       2.32060000
C       -0.36330000      -2.34230000       2.03000000
O       -1.15740000      -3.19280000       1.73820000
H        0.98860000       2.01220000      -0.17080000
H       -0.75210000       2.18640000      -0.41900000
H       -0.09250000       2.11730000       1.22930000
H       -1.15230000      -0.06500000       0.58290000
H       -0.09370000      -0.18460000      -0.81910000
H        1.76680000      -0.11620000       0.83200000
H        0.61330000      -2.34260000       0.12730000
H        2.99240000      -1.83770000       1.31510000
H       -0.39460000      -1.79630000       2.99760000
