21
Properties=species:S:1:pos:R:3 gdb_75353=T pbc="F F F"
C       -0.03300000       1.50260000       0.06580000
C       -0.00510000       0.00290000      -0.05170000
C       -0.09950000      -0.63430000      -1.22370000
C       -0.02880000      -2.13660000      -1.35240000
C        0.56030000      -2.78020000      -0.09610000
C        1.96550000      -2.23300000       0.34340000
C        1.32030000      -1.63360000       1.59260000
C       -0.02150000      -2.25780000       1.23620000
C        0.11900000      -0.76440000       1.22280000
H        0.88250000       1.87870000       0.54050000
H       -0.13190000       1.98270000      -0.91160000
H       -0.86800000       1.83740000       0.69530000
H       -0.21350000      -0.05890000      -2.13980000
H       -1.02590000      -2.55180000      -1.56660000
H        0.59090000      -2.40110000      -2.22030000
H        0.54780000      -3.86980000      -0.17010000
H        2.65950000      -3.04180000       0.58470000
H        2.45590000      -1.53610000      -0.34380000
H        1.78770000      -1.54020000       2.56630000
H       -0.73700000      -2.77290000       1.86570000
H       -0.30380000      -0.26840000       2.09350000
