17
Properties=species:S:1:pos:R:3 gdb_84315=T pbc="F F F"
C        0.34830000       1.58960000       0.02320000
C       -0.05260000       0.10050000       0.00210000
C        0.37530000      -0.56230000      -1.28030000
C        0.94850000      -1.76760000      -1.37490000
C        1.21080000      -2.61840000      -0.19900000
O        1.47590000      -3.80140000      -0.28330000
C        1.10360000      -1.94460000       1.14240000
O        1.89360000      -0.75330000       1.30230000
C        0.48170000      -0.60790000       1.23210000
H        1.43720000       1.68740000       0.01590000
H       -0.05420000       2.11520000      -0.84760000
H       -0.03450000       2.08150000       0.92250000
H       -1.15180000       0.04930000       0.04720000
H        0.17470000       0.00410000      -2.18800000
H        1.19700000      -2.20530000      -2.33640000
H        1.10490000      -2.62030000       1.99500000
H        0.01460000      -0.32640000       2.17670000
