18
Properties=species:S:1:pos:R:3 gdb_106206=T pbc="F F F"
O        0.61700000       0.11120000      -0.79290000
C       -0.18080000       0.40900000       0.34470000
C       -1.51420000      -0.24050000       0.16150000
C       -2.26440000      -0.39540000      -1.13920000
C       -3.73320000      -0.11380000      -0.88930000
N       -3.90180000      -0.57970000       0.49530000
C       -2.99070000      -1.71420000       0.73440000
C       -1.87140000      -1.62420000      -0.34130000
C       -2.64560000      -0.35460000       1.23020000
H        1.47430000       0.53020000      -0.67430000
H        0.29260000       0.03700000       1.26900000
H       -0.31010000       1.49880000       0.46530000
H       -1.75860000      -0.18020000      -2.07120000
H       -3.98510000       0.95000000      -0.95160000
H       -4.39960000      -0.67610000      -1.55140000
H       -3.35460000      -2.59800000       1.24220000
H       -1.22660000      -2.41560000      -0.69350000
H       -2.66730000       0.09020000       2.21760000
