17
Properties=species:S:1:pos:R:3 gdb_74861=T pbc="F F F"
C        0.06480000       1.47290000       0.04350000
C        0.00960000      -0.01750000      -0.02490000
C       -0.08450000      -0.81720000      -1.08850000
C       -0.03710000      -2.25110000      -0.69660000
C        1.21830000      -2.69750000      -0.02920000
N        0.05790000      -2.30360000       0.78520000
C        0.06590000      -0.88910000       1.23750000
C        1.22670000      -0.58650000       2.08510000
N        2.14340000      -0.32120000       2.73690000
H        0.99940000       1.81130000       0.50600000
H       -0.00770000       1.91800000      -0.95150000
H       -0.75190000       1.87110000       0.65890000
H       -0.17380000      -0.48500000      -2.11570000
H       -0.69810000      -2.97030000      -1.17230000
H        1.45730000      -3.75460000       0.04110000
H        2.07430000      -2.02960000      -0.07890000
H       -0.83030000      -0.72490000       1.85360000
