16
Properties=species:S:1:pos:R:3 gdb_13357=T pbc="F F F"
C       -0.07730000       1.45550000      -0.03540000
C       -0.00010000       0.00370000      -0.02020000
C        0.08290000      -1.20090000      -0.01130000
C        0.10350000      -2.61240000       0.01350000
C        1.13560000      -3.44540000      -0.16210000
C        0.67520000      -4.86690000      -0.04740000
O       -0.72380000      -4.79210000       0.21210000
C       -1.14570000      -3.43620000       0.26320000
H        0.57030000       1.89570000       0.73140000
H        0.23670000       1.85970000      -1.00450000
H       -1.09930000       1.80140000       0.15380000
H        2.16040000      -3.16060000      -0.35900000
H        0.85560000      -5.44250000      -0.97010000
H        1.18020000      -5.40720000       0.77000000
H       -1.59130000      -3.21230000       1.24410000
H       -1.91640000      -3.24770000      -0.49940000
