17
Properties=species:S:1:pos:R:3 gdb_36364=T pbc="F F F"
C       -0.02060000      -0.87540000      -0.81550000
C       -0.04860000       0.22400000      -0.33140000
C       -0.05690000       1.55540000       0.26540000
C        1.34850000       2.10910000       0.43610000
O        1.92690000       2.80200000      -0.67510000
C        1.67100000       3.54590000       0.51230000
C        0.69160000       4.67870000       0.43320000
C        0.47940000       5.40870000      -0.82570000
O       -0.50820000       4.50870000      -0.31520000
H       -0.00650000      -1.84260000      -1.25290000
H       -0.63930000       2.25220000      -0.34160000
H       -0.53760000       1.51130000       1.25230000
H        2.04110000       1.42250000       0.92550000
H        2.56770000       3.82170000       1.07440000
H        0.56390000       5.21730000       1.37360000
H        0.20550000       6.46160000      -0.80260000
H        0.99560000       5.06170000      -1.71750000
