13
Properties=species:S:1:pos:R:3 gdb_29107=T pbc="F F F"
N       -0.09320000       1.44600000       0.11790000
C       -0.11910000       0.05100000       0.05110000
C       -1.22550000      -0.65460000      -0.15140000
O       -1.24300000      -2.02740000      -0.21610000
C       -0.09270000      -2.74610000      -0.07080000
O       -0.12250000      -3.93580000      -0.12900000
C        1.18380000      -1.95410000       0.16220000
N        2.27230000      -2.57410000       0.30250000
O        1.10580000      -0.58570000       0.21160000
H        0.25270000       1.77180000       1.01610000
H        0.50140000       1.84480000      -0.60310000
H       -2.19760000      -0.20680000      -0.28130000
H        3.04110000      -1.91680000       0.45090000
