16
Properties=species:S:1:pos:R:3 gdb_35218=T pbc="F F F"
C        0.04070000      -1.14450000      -0.15570000
C        0.01250000       0.05660000      -0.07650000
C        0.02720000       1.48390000       0.00960000
C        0.43310000       2.17710000       1.30510000
C        1.36690000       2.21440000       0.13960000
C        2.71440000       1.48930000       0.09040000
O        3.51860000       2.35600000      -0.74930000
C        2.72200000       3.40770000      -1.04710000
N        1.53080000       3.44160000      -0.60730000
H        0.03950000      -2.20420000      -0.22180000
H       -0.70580000       2.00810000      -0.59510000
H       -0.08590000       3.09490000       1.55500000
H        0.69450000       1.54120000       2.14400000
H        3.20450000       1.40910000       1.06560000
H        2.66000000       0.49970000      -0.37110000
H        3.18770000       4.16700000      -1.66440000
