17
Properties=species:S:1:pos:R:3 gdb_116029=T pbc="F F F"
O        0.03710000       1.40400000      -0.07580000
C        0.05530000      -0.00710000      -0.03950000
C       -1.35900000      -0.57300000       0.03780000
O       -2.04010000      -0.10900000      -1.12660000
C       -3.38330000      -0.52720000      -1.21390000
C       -3.54020000      -2.00700000      -1.02220000
C       -2.58320000      -2.74440000      -0.44780000
C       -1.38740000      -2.10130000       0.12980000
O       -0.51400000      -2.72160000       0.70170000
H       -0.55640000       1.64650000      -0.79600000
H        0.55850000      -0.43410000      -0.92070000
H        0.61310000      -0.31420000       0.84680000
H       -1.85330000      -0.17110000       0.94140000
H       -4.01610000       0.00860000      -0.48040000
H       -3.73590000      -0.23330000      -2.20890000
H       -4.46920000      -2.45440000      -1.36750000
H       -2.66330000      -3.81950000      -0.32430000
