21
Properties=species:S:1:pos:R:3 gdb_89514=T pbc="F F F"
C       -0.01310000       1.60200000      -0.18220000
C       -0.00850000       0.09350000       0.01460000
C       -1.34560000      -0.52320000       0.54420000
C       -0.62350000      -1.01030000       1.83370000
O       -0.59660000      -2.39660000       2.07980000
C        0.73600000      -0.47940000       1.27260000
O        1.65470000      -1.45250000       0.84070000
C        1.23390000      -1.92370000      -0.43860000
C        0.63400000      -0.69540000      -1.14030000
H        1.00150000       1.98100000      -0.34850000
H       -0.62190000       1.88640000      -1.04850000
H       -0.42530000       2.11970000       0.69120000
H       -2.15190000       0.19810000       0.70420000
H       -1.72780000      -1.34850000      -0.06420000
H       -0.93870000      -0.45300000       2.72780000
H       -1.48590000      -2.67020000       2.32700000
H        1.26560000       0.21760000       1.92750000
H        2.11030000      -2.33530000      -0.94600000
H        0.48900000      -2.72220000      -0.32040000
H       -0.08400000      -0.96230000      -1.92180000
H        1.43080000      -0.10030000      -1.59980000
