19
Properties=species:S:1:pos:R:3 gdb_81746=T pbc="F F F"
C       -0.36830000       1.60390000       0.34970000
C       -0.11850000       0.10990000       0.20270000
C        0.19290000      -0.44940000      -1.19250000
C        1.51620000       0.04990000      -1.69810000
C        1.49690000      -1.00050000      -0.60440000
C        2.11230000      -2.28430000      -0.75830000
N        2.62240000      -3.31540000      -0.88480000
N        1.17210000      -0.47210000       0.71260000
C        2.16470000       0.32870000       1.40710000
H        0.39240000       2.21040000      -0.14880000
H       -1.33950000       1.85500000      -0.08900000
H       -0.39800000       1.89430000       1.40470000
H       -0.94890000      -0.43750000       0.66400000
H       -0.50620000      -0.97700000      -1.82710000
H        1.79770000      -0.31440000      -2.68040000
H        1.87160000       1.04920000      -1.46810000
H        2.54380000       1.19630000       0.84210000
H        1.74420000       0.69140000       2.34950000
H        3.01790000      -0.31230000       1.65060000
