18
Properties=species:S:1:pos:R:3 gdb_10084=T pbc="F F F"
C       -0.14230000       1.54420000       0.32850000
C        0.01800000       0.03000000       0.18140000
C        0.66910000      -0.39680000      -1.13240000
C        0.79770000      -1.91430000      -1.28720000
O       -0.45520000      -2.56320000      -1.25380000
O       -0.16030000       0.05780000      -2.23050000
C        0.38660000       0.82640000      -3.19140000
O       -0.22200000       1.19110000      -4.15150000
H        0.82420000       2.05800000       0.26950000
H       -0.78920000       1.95100000      -0.45370000
H       -0.59020000       1.79340000       1.29460000
H        0.63970000      -0.36360000       0.99490000
H       -0.95080000      -0.47250000       0.26020000
H        1.66460000       0.06070000      -1.22900000
H        1.34230000      -2.13290000      -2.21960000
H        1.38620000      -2.31650000      -0.45570000
H       -0.98900000      -2.17570000      -1.95760000
H        1.44490000       1.07990000      -2.98640000
