18
Properties=species:S:1:pos:R:3 gdb_86713=T pbc="F F F"
C        0.15000000       1.60190000       0.18000000
C        0.01800000       0.08130000       0.11190000
N        0.62660000      -0.45140000      -1.12210000
C        1.17570000      -1.78930000      -0.89960000
C        2.44120000      -1.97690000      -1.72970000
O        2.70770000      -2.97870000      -2.34100000
C        1.47070000      -1.79780000       0.59600000
O        2.18900000      -0.64290000       1.04780000
C        0.76490000      -0.66680000       1.20050000
H        1.20630000       1.88100000       0.16830000
H       -0.34050000       2.07170000      -0.67820000
H       -0.31580000       1.99520000       1.08970000
H       -1.04590000      -0.19910000       0.21080000
H        0.00500000      -0.40870000      -1.91810000
H        0.49430000      -2.62580000      -1.12080000
H        3.10370000      -1.08600000      -1.71800000
H        1.69240000      -2.73200000       1.10250000
H        0.39600000      -0.66740000       2.22250000
