21
Properties=species:S:1:pos:R:3 gdb_108493=T pbc="F F F"
C       -0.22420000       1.57220000      -0.12650000
C       -0.03370000       0.05300000      -0.04950000
C        0.79540000      -0.50550000      -1.19600000
O        0.13670000      -0.26420000      -2.48130000
C        0.27130000      -1.65220000      -2.84840000
C        0.83930000      -2.03890000      -1.46650000
C        2.31020000      -2.48360000      -1.40530000
C        3.05810000      -1.16950000      -1.34110000
C        2.25390000      -0.11290000      -1.22190000
H        0.72600000       2.10580000      -0.02240000
H       -0.66550000       1.85140000      -1.08720000
H       -0.88780000       1.92230000       0.66970000
H        0.44510000      -0.22630000       0.89800000
H       -1.01410000      -0.43770000      -0.07020000
H       -0.69500000      -2.09310000      -3.11970000
H        0.97290000      -1.79200000      -3.68220000
H        0.16660000      -2.64790000      -0.86120000
H        2.51880000      -3.10640000      -0.52540000
H        2.60140000      -3.08320000      -2.27770000
H        4.14150000      -1.12130000      -1.38620000
H        2.58110000       0.91870000      -1.16370000
