13
Properties=species:S:1:pos:R:3 gdb_5048=T pbc="F F F"
N       -0.05980000       0.93970000      -0.68900000
C       -0.01700000      -0.03650000       0.11490000
N        1.16980000      -0.55100000       0.68090000
C        1.50790000      -1.75930000       0.41200000
C        0.73420000      -2.76710000      -0.29740000
C       -0.61800000      -2.79790000      -0.33670000
C       -1.47270000      -1.82690000       0.33180000
N       -1.20940000      -0.60390000       0.60380000
H        0.88940000       1.25900000      -0.89100000
H        2.48190000      -2.08560000       0.78480000
H        1.29160000      -3.60960000      -0.69850000
H       -1.11240000      -3.66420000      -0.76840000
H       -2.44140000      -2.20300000       0.66990000
