11
Properties=species:S:1:pos:R:3 gdb_355=T pbc="F F F"
C        0.03170000       1.45170000      -0.03520000
N       -0.09700000       0.00970000      -0.12170000
C       -1.24940000      -0.64420000       0.19280000
O       -2.27470000      -0.11950000       0.57110000
C       -1.11880000      -2.16730000       0.01520000
O       -2.01820000      -2.92430000       0.23880000
H        0.81460000       1.73700000       0.67550000
H        0.26710000       1.88730000      -1.01210000
H       -0.92630000       1.84190000       0.31040000
H        0.69770000      -0.52940000      -0.42630000
H       -0.12220000      -2.52730000      -0.33920000
