16
Properties=species:S:1:pos:R:3 gdb_14674=T pbc="F F F"
C        0.77780000       1.05890000       0.16370000
C       -0.20760000       0.01550000      -0.39310000
C        0.21480000      -0.55570000      -1.66670000
C        0.57790000      -1.01690000      -2.71840000
C        1.01920000      -1.58870000      -3.98150000
O        1.77610000      -2.80480000      -3.80830000
C        3.08290000      -2.65970000      -3.51070000
O        3.80240000      -3.58970000      -3.30690000
H        1.76290000       0.61440000       0.32810000
H        0.89490000       1.89420000      -0.53190000
H        0.41390000       1.45260000       1.11700000
H       -0.33830000      -0.79580000       0.33420000
H       -1.19870000       0.47020000      -0.51670000
H        0.16820000      -1.87680000      -4.60420000
H        1.61410000      -0.86330000      -4.55210000
H        3.40660000      -1.60080000      -3.48960000
