15
Properties=species:S:1:pos:R:3 gdb_30901=T pbc="F F F"
N        0.06610000       1.24430000       0.01550000
C       -0.04140000      -0.11790000      -0.01890000
N       -1.13880000      -0.82360000      -0.00030000
C       -0.67130000      -2.12370000       0.02540000
O       -1.52500000      -3.16480000       0.05000000
C        0.68520000      -2.16760000       0.01920000
C        1.70580000      -3.23460000       0.01180000
O        2.39540000      -3.39070000      -1.23060000
O        1.09580000      -0.82060000      -0.01220000
H        0.92110000       1.61840000      -0.36720000
H       -0.76940000       1.72880000      -0.27390000
H       -2.41370000      -2.79090000       0.08050000
H        2.49350000      -3.02820000       0.74440000
H        1.20610000      -4.16600000       0.31620000
H        1.72300000      -3.50110000      -1.91140000
