22
Properties=species:S:1:pos:R:3 gdb_120915=T pbc="F F F"
C       -0.59840000       1.12580000      -0.07630000
N       -0.11590000      -0.19900000       0.27860000
C        1.16370000      -0.72650000      -0.11850000
C        2.30610000       0.30700000      -0.02210000
C        2.00810000       0.45310000       1.51100000
C        1.83100000       1.81560000       2.17700000
C        3.14600000       2.57620000       2.30550000
O        2.87420000       3.81950000       2.93500000
C        0.81130000      -0.51190000       1.33940000
H        0.17840000       1.88610000      -0.22800000
H       -1.17130000       1.04450000      -1.00620000
H       -1.27550000       1.48010000       0.70680000
H        1.19460000      -1.64440000      -0.69660000
H        3.28900000      -0.12330000      -0.22460000
H        2.19150000       1.20460000      -0.63790000
H        2.78660000      -0.09700000       2.05480000
H        1.12400000       2.44490000       1.62930000
H        1.41130000       1.67950000       3.18180000
H        3.86310000       1.97910000       2.89350000
H        3.59030000       2.72400000       1.30730000
H        3.70020000       4.30600000       3.00980000
H        0.49240000      -1.23090000       2.08850000
