19
Properties=species:S:1:pos:R:3 gdb_70581=T pbc="F F F"
C       -0.04870000       1.51540000       0.01410000
C        0.06130000       0.00960000      -0.01310000
O       -0.31700000      -0.66530000       1.18790000
C        1.06310000      -0.71250000       0.79310000
C        1.60330000      -2.05250000       0.31370000
C        1.73680000      -2.12430000      -1.22070000
C        0.47270000      -1.67950000      -1.92300000
O       -0.75850000      -2.01100000      -1.27670000
C       -0.37350000      -0.63830000      -1.31090000
H        0.51710000       1.96520000      -0.80950000
H       -1.09440000       1.82660000      -0.08800000
H        0.33500000       1.90990000       0.95760000
H        1.71710000      -0.12400000       1.43680000
H        2.57730000      -2.24770000       0.77180000
H        0.91690000      -2.83230000       0.65310000
H        2.56250000      -1.48870000      -1.56880000
H        1.98600000      -3.14850000      -1.52080000
H        0.45850000      -1.78800000      -3.00810000
H       -0.99580000      -0.01610000      -1.95470000
