15
Properties=species:S:1:pos:R:3 gdb_4920=T pbc="F F F"
C        0.08560000       1.35360000      -0.12330000
N       -0.17750000      -0.04590000       0.14260000
C        0.55600000      -0.65890000       1.14690000
C        1.26610000      -0.09740000       2.17670000
N        1.74290000      -1.19560000       2.91440000
C        1.30910000      -2.30060000       2.27840000
O        1.62420000      -3.51980000       2.75010000
N        0.59350000      -2.04270000       1.21380000
H        1.14680000       1.57180000      -0.32970000
H       -0.51300000       1.67890000      -0.97720000
H       -0.21580000       1.95720000       0.74100000
H       -0.23460000      -0.62800000      -0.68080000
H        1.47040000       0.91610000       2.46930000
H        2.30660000      -1.17380000       3.74550000
H        1.20410000      -4.15300000       2.15500000
