19
Properties=species:S:1:pos:R:3 gdb_98359=T pbc="F F F"
C       -0.53380000       0.91800000      -1.08310000
N       -0.60510000      -0.47280000      -0.68010000
C       -0.90290000      -0.84640000       0.58910000
O       -1.07520000      -0.07650000       1.51920000
C       -1.00240000      -2.38430000       0.77020000
C       -0.99580000      -2.76360000       2.24530000
N       -2.20770000      -2.90820000       0.11830000
C       -2.27540000      -3.18800000      -1.20100000
O       -1.37470000      -2.99300000      -2.00200000
H        0.42130000       1.13430000      -1.57320000
H       -1.34460000       1.17880000      -1.77350000
H       -0.62300000       1.52990000      -0.18480000
H       -0.57160000      -1.20210000      -1.38390000
H       -0.15530000      -2.84360000       0.24980000
H       -1.07820000      -3.84770000       2.36310000
H       -0.06940000      -2.42690000       2.71420000
H       -1.81760000      -2.27100000       2.77200000
H       -3.02910000      -3.04990000       0.68590000
H       -3.24640000      -3.62810000      -1.49360000
