19
Properties=species:S:1:pos:R:3 gdb_36237=T pbc="F F F"
C        0.01460000      -1.17890000       0.18070000
C       -0.03160000       0.01460000       0.04210000
C       -0.04120000       1.46410000      -0.11830000
C        1.36380000       2.07900000      -0.01260000
C        1.54510000       3.59420000       0.03830000
C        1.48470000       4.02960000       1.51440000
C        1.26160000       2.78050000       2.36340000
C        2.15890000       2.04780000       1.32880000
C        2.75520000       3.46190000       0.92980000
H        0.03850000      -2.23340000       0.30040000
H       -0.46580000       1.72230000      -1.09780000
H       -0.70920000       1.91420000       0.62490000
H        1.99680000       1.66300000      -0.80320000
H        1.38700000       4.31230000      -0.75700000
H        1.28180000       5.06130000       1.77270000
H        1.77340000       2.86960000       3.32570000
H        0.24490000       2.40810000       2.53190000
H        2.72250000       1.16110000       1.60850000
H        3.75860000       3.85180000       0.84560000
