19
Properties=species:S:1:pos:R:3 gdb_65581=T pbc="F F F"
C        0.35600000       1.24790000       0.02830000
C       -0.14470000      -0.21470000      -0.00460000
C        0.47760000      -0.98840000      -1.22380000
C        1.67750000      -1.71900000      -0.66410000
O        2.55810000      -0.89580000       0.11640000
C        1.60950000      -1.72870000       0.80100000
C        0.36250000      -1.00480000       1.25670000
C       -1.60460000      -0.22180000      -0.07240000
C       -2.80600000      -0.22250000      -0.12820000
H        1.44580000       1.26420000       0.07900000
H        0.03090000       1.78290000      -0.86890000
H       -0.05110000       1.77120000       0.89850000
H       -0.23310000      -1.72130000      -1.61910000
H        0.73500000      -0.30400000      -2.03760000
H        2.16500000      -2.50170000      -1.24030000
H        2.04200000      -2.51930000       1.40940000
H        0.54290000      -0.33140000       2.09980000
H       -0.38130000      -1.74240000       1.57470000
H       -3.86660000      -0.22290000      -0.17730000
