18
Properties=species:S:1:pos:R:3 gdb_126937=T pbc="F F F"
C        0.08030000       1.47130000      -0.06530000
C       -0.16830000      -0.02150000       0.12160000
N        0.60110000      -0.53050000       1.25120000
C        0.83370000      -1.84350000       1.45680000
N        1.31100000      -2.40310000       2.54060000
C        1.37960000      -3.72160000       2.15990000
C        1.87760000      -4.79850000       3.06170000
N        0.97570000      -3.98260000       0.94390000
O        0.59470000      -2.69660000       0.45490000
H        1.13900000       1.67150000      -0.25220000
H       -0.50000000       1.84690000      -0.91210000
H       -0.22410000       2.03830000       0.82180000
H       -1.24280000      -0.21360000       0.25730000
H        0.14310000      -0.57510000      -0.76790000
H        0.64270000       0.03080000       2.08790000
H        1.26820000      -4.84340000       3.96930000
H        1.84220000      -5.76420000       2.55560000
H        2.90680000      -4.58880000       3.36850000
