23
Properties=species:S:1:pos:R:3 gdb_96442=T pbc="F F F"
C        0.38020000       1.64480000       0.02520000
C       -0.02810000       0.16190000      -0.05160000
C        0.54110000      -0.47400000      -1.33010000
C        0.01820000      -1.86910000      -1.69670000
C        0.55340000      -3.01910000      -0.83500000
C        0.00060000      -3.09430000       0.59160000
C        0.38010000      -1.97000000       1.53310000
O        1.60520000      -1.25510000       1.31340000
C        0.36740000      -0.52870000       1.24540000
H        1.46980000       1.74510000       0.08370000
H        0.03920000       2.19220000      -0.85880000
H       -0.04740000       2.13270000       0.90720000
H       -1.12730000       0.12200000      -0.10520000
H        0.30970000       0.20740000      -2.15760000
H        1.63430000      -0.50550000      -1.25070000
H       -1.08120000      -1.87010000      -1.67260000
H        0.29580000      -2.06880000      -2.73880000
H        0.31430000      -3.96820000      -1.32930000
H        1.64660000      -2.95760000      -0.78930000
H       -1.09680000      -3.16090000       0.56930000
H        0.34480000      -4.03190000       1.04660000
H        0.22560000      -2.23140000       2.58360000
H        0.21090000       0.11160000       2.11850000
