20
Properties=species:S:1:pos:R:3 gdb_112263=T pbc="F F F"
C        0.20200000       1.57280000       0.17510000
C       -0.13490000       0.09990000      -0.07530000
C        0.59190000      -0.47350000      -1.28580000
N        2.04940000      -0.64100000      -1.14000000
C        2.06300000      -2.01070000      -1.20170000
O        2.93290000      -2.83410000      -1.08320000
C        0.52510000      -2.02370000      -1.47370000
O       -0.28540000      -2.68060000      -0.54810000
C       -0.22180000      -4.09400000      -0.66380000
H        1.26900000       1.70900000       0.38410000
H       -0.05010000       2.19470000      -0.69120000
H       -0.35070000       1.96080000       1.03560000
H        0.10840000      -0.50460000       0.80350000
H       -1.21200000      -0.01610000      -0.24340000
H        0.32520000       0.08500000      -2.19180000
H        2.79460000       0.02600000      -1.00240000
H        0.29240000      -2.33090000      -2.50510000
H       -0.56940000      -4.42610000      -1.65420000
H        0.79790000      -4.46360000      -0.50650000
H       -0.88400000      -4.50360000       0.10180000
