19
Properties=species:S:1:pos:R:3 gdb_72557=T pbc="F F F"
C       -0.02900000       1.51570000       0.00140000
C        0.03450000       0.00280000       0.02550000
C        0.73900000      -0.67770000      -1.19580000
C        0.93070000      -2.15250000      -0.72860000
C        0.31860000      -2.11030000       0.68300000
C        0.72440000      -0.72630000       1.20120000
O       -1.11930000      -1.96580000       0.51120000
C       -1.33510000      -0.68070000       0.09330000
O       -2.41920000      -0.25210000      -0.17640000
H        0.97220000       1.94840000      -0.09160000
H       -0.63430000       1.85860000      -0.84260000
H       -0.48910000       1.90680000       0.91380000
H        0.14470000      -0.58950000      -2.10840000
H        1.69780000      -0.18270000      -1.37680000
H        0.40420000      -2.87450000      -1.35590000
H        1.98500000      -2.44030000      -0.69090000
H        0.49170000      -2.97660000       1.31890000
H        1.80690000      -0.57490000       1.23330000
H        0.28940000      -0.49230000       2.17650000
