20
Properties=species:S:1:pos:R:3 gdb_114640=T pbc="F F F"
O       -0.21990000       1.50240000      -0.32930000
C        0.07210000       0.14290000      -0.03850000
C       -1.25490000      -0.58670000       0.05660000
C       -2.10350000      -0.82290000      -1.21960000
N       -2.21160000      -2.30520000      -0.94990000
C       -0.82450000      -2.81350000      -0.98670000
C       -1.26850000      -2.10860000       0.23310000
C       -1.57760000      -2.84590000       1.51570000
O       -2.16700000      -4.10050000       1.24330000
H        0.61060000       1.97570000      -0.43380000
H        0.69990000      -0.30420000      -0.82450000
H        0.61910000       0.04250000       0.91360000
H       -1.85730000      -0.10310000       0.83160000
H       -3.09000000      -0.35840000      -1.19760000
H       -1.62110000      -0.59080000      -2.17500000
H       -0.77470000      -3.89530000      -0.92620000
H       -0.12000000      -2.35610000      -1.67720000
H       -0.66460000      -3.03800000       2.09250000
H       -2.23470000      -2.21720000       2.14060000
H       -2.83270000      -3.93100000       0.56120000
