17
Properties=species:S:1:pos:R:3 gdb_37587=T pbc="F F F"
O       -0.04050000       1.45390000       0.01100000
C        1.32460000       1.80410000      -0.00050000
C        2.11220000       0.74970000       0.74610000
C        2.09730000       0.75790000      -0.77370000
C        1.06470000      -0.33670000      -1.15030000
C        1.54460000      -1.69170000      -0.69150000
C        1.55770000      -1.69890000       0.64840000
C        1.08700000      -0.34890000       1.13110000
C        0.07650000       0.05330000       0.00230000
H        1.51740000       2.86820000       0.00340000
H        2.99300000       0.96340000       1.33610000
H        2.96640000       0.97800000      -1.37860000
H        0.67950000      -0.26200000      -2.16760000
H        1.87450000      -2.48160000      -1.35390000
H        1.90040000      -2.49590000       1.29580000
H        0.72190000      -0.28520000       2.15650000
H       -0.90020000      -0.42540000       0.00930000
