23
Properties=species:S:1:pos:R:3 gdb_104202=T pbc="F F F"
C       -0.01790000       1.40990000       0.30930000
O       -0.14590000       0.02690000       0.55140000
C       -1.32660000      -0.58140000       0.06150000
C       -2.57450000      -0.07070000       0.77940000
C       -1.49230000      -0.64630000      -1.49020000
C       -1.82600000      -2.15590000      -1.35920000
C       -1.20950000      -2.14230000       0.07330000
C        0.22650000      -2.65170000       0.11500000
O       -1.98400000      -2.72920000       1.10330000
H        0.99490000       1.69120000       0.60970000
H       -0.14780000       1.65650000      -0.75510000
H       -0.73060000       2.01030000       0.89170000
H       -2.74820000       0.98540000       0.55130000
H       -3.45990000      -0.63080000       0.47080000
H       -2.46290000      -0.18960000       1.85960000
H       -2.25450000      -0.00330000      -1.93560000
H       -0.53980000      -0.47470000      -1.99800000
H       -2.90110000      -2.34390000      -1.31580000
H       -1.37350000      -2.83430000      -2.08680000
H        0.84580000      -2.18380000      -0.65360000
H        0.67870000      -2.44160000       1.08680000
H        0.23750000      -3.73570000      -0.05900000
H       -1.76640000      -3.66570000       1.14590000
