20
Properties=species:S:1:pos:R:3 gdb_82498=T pbc="F F F"
C       -0.26680000       1.62090000      -0.04150000
C        0.01930000       0.12770000      -0.01890000
C        1.12640000      -0.54880000      -0.87480000
C        2.41150000       0.20500000      -0.49500000
C        2.37330000      -0.27500000       0.97430000
O        3.16150000       0.34230000       1.93840000
C        2.48690000      -1.78630000       0.75620000
N        1.11000000      -1.71560000       0.15680000
C        0.80230000      -0.55690000       1.10230000
H        0.60870000       2.23080000       0.19820000
H       -0.63340000       1.93720000      -1.02440000
H       -1.04200000       1.86760000       0.69200000
H       -0.90940000      -0.43440000      -0.16350000
H        0.96400000      -0.82320000      -1.91690000
H        3.30820000      -0.14060000      -1.01630000
H        2.33570000       1.28800000      -0.62490000
H        3.09440000       1.29670000       1.83240000
H        3.28800000      -2.16920000       0.11580000
H        2.42930000      -2.37070000       1.67870000
H        0.40970000      -0.78870000       2.09420000
