20
Properties=species:S:1:pos:R:3 gdb_121187=T pbc="F F F"
C        0.31550000       1.36910000      -0.25270000
C        0.00960000      -0.02740000       0.25930000
O       -1.13990000      -0.50920000      -0.42090000
C       -1.51020000      -1.79990000      -0.06430000
C       -2.22270000      -2.06240000       1.29280000
C       -3.19280000      -3.01340000       0.54400000
C       -2.76890000      -2.34530000      -0.80970000
C       -3.68920000      -1.30730000      -1.24950000
N       -4.44810000      -0.50740000      -1.59700000
H        1.19790000       1.77370000       0.25170000
H        0.50670000       1.34880000      -1.32910000
H       -0.52990000       2.03720000      -0.06790000
H        0.86030000      -0.70590000       0.07990000
H       -0.17100000      -0.01170000       1.34540000
H       -0.67530000      -2.50510000      -0.20490000
H       -1.63290000      -2.47620000       2.11250000
H       -2.73300000      -1.15630000       1.63030000
H       -2.87020000      -4.05610000       0.57520000
H       -4.25070000      -2.95870000       0.79900000
H       -2.56950000      -3.01760000      -1.64730000
