16
Properties=species:S:1:pos:R:3 gdb_128508=T pbc="F F F"
C       -0.05290000       1.44940000       0.11140000
O       -0.01390000       0.02710000       0.00010000
C        0.62820000      -0.61260000       0.99280000
C        0.76180000      -1.98170000       1.11580000
C        0.32480000      -3.14520000       0.29530000
O        0.32310000      -4.28600000       1.14630000
N        1.48890000      -2.10180000       2.25400000
N        1.77260000      -0.91940000       2.80830000
N        1.25090000      -0.00070000       2.02740000
H        0.95680000       1.87180000       0.10820000
H       -0.61070000       1.79950000      -0.75820000
H       -0.55630000       1.75830000       1.03300000
H       -0.67110000      -2.93910000      -0.12400000
H        1.00830000      -3.29440000      -0.55640000
H        0.19750000      -5.06850000       0.60180000
H        1.75160000      -2.96210000       2.70890000
