23
Properties=species:S:1:pos:R:3 gdb_84374=T pbc="F F F"
C       -0.30160000       1.53380000      -0.11340000
C       -0.05130000       0.01990000       0.00440000
C        0.77170000      -0.50300000      -1.14900000
C        1.98210000      -0.90270000      -0.76960000
C        2.21190000      -0.73660000       0.71360000
C        3.27270000       0.33520000       1.01480000
C        0.76840000      -0.46900000       1.25150000
C        0.68460000       0.43740000       2.47900000
O        0.30290000      -1.77840000       1.61490000
H        0.63700000       2.09670000      -0.12460000
H       -0.82610000       1.75640000      -1.04870000
H       -0.91800000       1.91090000       0.70870000
H       -1.03290000      -0.47480000       0.03910000
H        0.39830000      -0.50700000      -2.16800000
H        2.75350000      -1.28360000      -1.43110000
H        2.54400000      -1.67790000       1.16780000
H        2.98310000       1.31530000       0.62240000
H        3.45510000       0.43500000       2.08910000
H        4.22270000       0.06350000       0.54280000
H        1.07540000       1.44070000       2.29290000
H       -0.35780000       0.54430000       2.80350000
H        1.24620000      -0.00700000       3.30570000
H       -0.62050000      -1.69660000       1.87700000
