15
Properties=species:S:1:pos:R:3 gdb_6070=T pbc="F F F"
C       -0.09980000       1.21860000      -0.26440000
C       -0.19040000      -0.26790000       0.01570000
O        0.67060000      -1.05360000      -0.29200000
C       -1.47250000      -0.72000000       0.72000000
O       -1.53210000      -2.12530000       0.86410000
C       -1.87070000      -2.79120000      -0.27750000
N       -1.79290000      -4.13620000      -0.06390000
O       -2.23740000      -2.25490000      -1.29560000
H        0.91550000       1.47660000      -0.56720000
H       -0.79100000       1.47320000      -1.07660000
H       -0.39510000       1.81120000       0.60810000
H       -1.49340000      -0.30510000       1.73320000
H       -2.34110000      -0.34470000       0.16870000
H       -1.23070000      -4.46040000       0.70540000
H       -1.82120000      -4.70890000      -0.89040000
