15
Properties=species:S:1:pos:R:3 gdb_46234=T pbc="F F F"
O       -0.00910000       0.04740000      -0.21220000
C       -0.03650000       1.22360000      -0.02030000
C       -1.10330000       2.26830000       0.36130000
N       -0.01010000       3.28630000       0.47480000
C        0.99080000       2.33500000      -0.01800000
C        2.43470000       2.25440000       0.35270000
C        2.06030000       2.60590000      -1.07690000
C        2.28010000       1.68390000      -2.15510000
N        2.46310000       0.95650000      -3.03570000
H       -1.83280000       2.44520000      -0.43740000
H       -1.63330000       2.08360000       1.30020000
H       -0.14890000       4.08350000      -0.13650000
H        2.84220000       3.05550000       0.95870000
H        2.84000000       1.26490000       0.53390000
H        2.17080000       3.65040000      -1.35460000
