23
Properties=species:S:1:pos:R:3 gdb_102672=T pbc="F F F"
C        0.70340000      -0.96700000      -1.42230000
C        0.27200000      -0.09460000      -0.24030000
C       -1.25140000      -0.03230000      -0.01700000
C       -1.81820000      -1.38460000       0.49790000
C       -3.18320000      -1.77520000      -0.08140000
N       -1.50690000       1.14410000       0.83050000
C       -2.87290000       1.59160000       1.02340000
C       -3.67470000       0.85360000       2.02600000
N       -4.26020000       0.28540000       2.84560000
H        1.79190000      -0.95710000      -1.53220000
H        0.39680000      -2.01100000      -1.30360000
H        0.27200000      -0.59940000      -2.36000000
H        0.75130000      -0.45680000       0.68060000
H        0.62680000       0.92970000      -0.39410000
H       -1.72000000       0.19350000      -0.98640000
H       -1.10580000      -2.18180000       0.25800000
H       -1.87110000      -1.35070000       1.59260000
H       -3.96540000      -1.05320000       0.16860000
H       -3.13380000      -1.85320000      -1.17340000
H       -3.50820000      -2.74550000       0.30650000
H       -1.03260000       1.05180000       1.72260000
H       -2.86780000       2.64300000       1.33770000
H       -3.39860000       1.55700000       0.06310000
