15
Properties=species:S:1:pos:R:3 gdb_85027=T pbc="F F F"
C       -0.22430000       1.53780000      -0.07840000
C        0.11720000       0.06400000       0.02950000
O        0.89150000      -0.36550000      -1.12420000
C        1.99300000      -1.05800000      -0.75860000
O        2.88060000      -1.35560000      -1.50520000
C        1.94100000      -1.37660000       0.73030000
O        3.18480000      -1.47020000       1.33860000
C        1.00690000      -0.28440000       1.23770000
O        0.96200000       0.23040000       2.31730000
H        0.68500000       2.13890000      -0.16030000
H       -0.85190000       1.72430000      -0.95240000
H       -0.76170000       1.84510000       0.82210000
H       -0.79490000      -0.54590000       0.06450000
H        1.35610000      -2.31630000       0.81710000
H        3.81540000      -1.67710000       0.63370000
