13
Properties=species:S:1:pos:R:3 gdb_129252=T pbc="F F F"
N       -0.07310000       1.31030000       0.01140000
C       -0.05120000       0.04960000       0.00370000
O        1.08100000      -0.74520000      -0.00700000
C        0.76180000      -2.16120000      -0.01390000
C       -0.73120000      -2.17690000      -0.00610000
C       -1.16310000      -0.89570000       0.00390000
O       -2.48950000      -0.81070000       0.01130000
N       -2.98330000      -2.12310000       0.00600000
C       -1.93480000      -2.92180000      -0.00430000
H        0.87410000       1.69130000       0.00870000
H        1.20960000      -2.60850000      -0.90800000
H        1.21890000      -2.61920000       0.87000000
H       -2.10470000      -3.98880000      -0.00980000
