20
Properties=species:S:1:pos:R:3 gdb_112115=T pbc="F F F"
C       -0.10880000       1.61220000      -0.12390000
C       -0.00970000       0.08280000      -0.01440000
C        0.77490000      -0.51060000      -1.18670000
O        2.16860000      -0.15320000      -1.12770000
C        2.70780000      -0.10500000       0.10960000
N        2.13880000      -0.23680000       1.23090000
C        0.68230000      -0.42420000       1.26770000
C        0.19280000       0.19950000       2.58190000
O        0.86880000      -0.37440000       3.67840000
H        0.87010000       2.09050000      -0.02750000
H       -0.52480000       1.89750000      -1.09580000
H       -0.76080000       2.02700000       0.64860000
H       -1.02260000      -0.33690000      -0.05630000
H        0.70400000      -1.60520000      -1.18890000
H        0.42070000      -0.13770000      -2.15090000
H        3.77780000       0.08480000       0.04200000
H        0.49790000      -1.50390000       1.36030000
H        0.33690000       1.29050000       2.55100000
H       -0.87750000       0.00470000       2.71620000
H        1.80230000      -0.36640000       3.42350000
