17
Properties=species:S:1:pos:R:3 gdb_42977=T pbc="F F F"
O        0.09110000       0.08240000       0.25980000
C        0.01000000       1.27200000       0.08610000
C       -1.21560000       2.07530000      -0.18820000
C       -1.41550000       3.27840000       0.73340000
C       -0.76720000       3.47500000      -0.59570000
C        0.76080000       3.52190000      -0.61640000
C        1.19770000       2.23430000       0.06920000
C        2.25060000       2.10920000       1.09580000
O        2.46870000       1.67760000      -0.24040000
H       -2.08570000       1.57630000      -0.59400000
H       -2.44220000       3.60430000       0.85520000
H       -0.81570000       3.34890000       1.63550000
H       -1.30900000       4.01170000      -1.36530000
H        1.12590000       3.50530000      -1.64900000
H        1.16010000       4.42130000      -0.13730000
H        2.79560000       3.00200000       1.40110000
H        2.17760000       1.31200000       1.83390000
