15
Properties=species:S:1:pos:R:3 gdb_131322=T pbc="F F F"
O       -0.01570000       1.22880000      -0.11000000
C        0.01630000      -0.10880000      -0.06110000
N       -0.11010000      -0.83700000      -1.15640000
N       -0.09470000      -2.09920000      -0.60150000
C        0.13680000      -3.42550000      -1.12800000
C        0.00400000      -4.24060000       0.19270000
N        0.38330000      -3.27160000       1.25160000
C        0.13000000      -2.02300000       0.71730000
N        0.17390000      -0.77310000       1.13470000
H        0.11850000       1.53600000       0.79430000
H       -0.60270000      -3.71720000      -1.87640000
H        1.13950000      -3.51000000      -1.56630000
H       -1.03280000      -4.57910000       0.31580000
H        0.66220000      -5.11090000       0.20920000
H        0.02480000      -3.45240000       2.17870000
