20
Properties=species:S:1:pos:R:3 gdb_65108=T pbc="F F F"
O        0.01660000       1.34350000       0.09150000
C        0.07890000      -0.04460000      -0.05150000
C        1.23530000      -0.55490000      -0.85140000
C        1.20250000      -0.78390000       0.64820000
C       -1.27000000      -0.67300000      -0.13480000
C       -1.63470000      -2.14330000      -0.39450000
C       -2.94370000      -1.65690000      -1.10580000
C       -2.53140000      -0.20850000      -0.81450000
N       -2.33300000      -0.00470000       0.62050000
H       -0.73780000       1.50160000       0.67840000
H        1.09000000      -1.40340000      -1.51130000
H        1.91770000       0.19910000      -1.22670000
H        1.86380000      -0.18090000       1.25950000
H        1.02670000      -1.79070000       1.01280000
H       -0.95640000      -2.64650000      -1.08710000
H       -1.74620000      -2.76640000       0.49920000
H       -2.94930000      -1.89940000      -2.17070000
H       -3.89670000      -1.97500000      -0.66940000
H       -2.71880000       0.66390000      -1.42940000
H       -2.88460000      -0.63560000       1.19980000
