17
Properties=species:S:1:pos:R:3 gdb_71074=T pbc="F F F"
C       -0.11330000       1.51930000      -0.08580000
C       -0.04440000       0.03600000       0.05700000
C        0.00040000      -1.06180000      -1.05500000
C        1.28840000      -1.53940000      -0.47650000
O        2.29620000      -2.01480000      -0.92110000
C        0.90270000      -0.93070000       0.88890000
C       -0.36380000      -1.74270000       1.30980000
C       -1.03230000      -1.06870000       0.11300000
O       -2.37670000      -0.95380000      -0.15090000
H        0.82680000       1.92700000      -0.47180000
H       -0.91450000       1.79900000      -0.77640000
H       -0.31910000       1.99910000       0.87720000
H       -0.32990000      -0.96830000      -2.08110000
H        1.65400000      -0.63130000       1.61450000
H       -0.27660000      -2.83490000       1.32590000
H       -0.78590000      -1.38150000       2.25200000
H       -2.68940000      -1.78170000      -0.53360000
