21
Properties=species:S:1:pos:R:3 gdb_75381=T pbc="F F F"
C        0.35310000       1.36710000       0.12600000
C        0.05880000      -0.09390000       0.00570000
C        0.01310000      -0.84120000      -1.09770000
C       -0.29920000      -2.29120000      -0.83060000
C       -0.39140000      -2.38610000       0.71820000
C        0.76130000      -3.15230000       1.40690000
C        1.74550000      -2.03340000       1.77030000
O        0.92120000      -0.93640000       2.13980000
C       -0.20020000      -0.92750000       1.24470000
H        1.18590000       1.52920000       0.81950000
H        0.60780000       1.81400000      -0.83870000
H       -0.50650000       1.91180000       0.53830000
H        0.17690000      -0.46340000      -2.10300000
H       -1.24020000      -2.59450000      -1.30770000
H        0.47120000      -2.95680000      -1.24230000
H       -1.35720000      -2.79600000       1.01790000
H        0.40260000      -3.63530000       2.32090000
H        1.20310000      -3.92230000       0.76880000
H        2.39170000      -2.26640000       2.62070000
H        2.38320000      -1.77720000       0.90950000
H       -1.04450000      -0.54360000       1.82980000
