22
Properties=species:S:1:pos:R:3 gdb_86307=T pbc="F F F"
C       -0.11740000       1.60660000      -0.17960000
C        0.04150000       0.10210000      -0.04330000
C        1.13150000      -0.61710000      -0.87750000
N        1.43510000      -1.44250000       0.29960000
C        2.78580000      -1.89460000       0.54010000
C        0.75010000      -0.51020000       1.20000000
C        1.49930000       0.38970000       2.22600000
O        0.66280000      -0.07970000       3.30010000
C       -0.00060000      -1.02740000       2.43890000
H        0.84300000       2.12600000      -0.09670000
H       -0.54550000       1.86020000      -1.15540000
H       -0.78510000       2.01060000       0.58930000
H       -0.92630000      -0.39160000      -0.17880000
H        0.82370000      -1.17620000      -1.76850000
H        1.95100000       0.06740000      -1.15820000
H        3.53780000      -1.08420000       0.53250000
H        2.84500000      -2.40380000       1.50800000
H        3.06900000      -2.61810000      -0.23220000
H        2.55480000       0.13120000       2.38330000
H        1.41850000       1.47430000       2.08830000
H       -1.09080000      -0.89720000       2.43820000
H        0.23680000      -2.06810000       2.69860000
