18
Properties=species:S:1:pos:R:3 gdb_43089=T pbc="F F F"
O       -0.01190000       0.01820000       0.08360000
C       -0.02110000       1.21230000       0.03100000
C       -1.08720000       2.30140000      -0.03230000
C       -1.27880000       2.90110000       1.40330000
C       -0.03450000       3.80750000       1.50710000
C        1.22250000       2.91990000       1.39280000
C        1.02780000       2.31740000      -0.04120000
N       -0.03900000       3.18920000      -0.68810000
C       -0.04510000       4.43670000       0.10130000
H       -2.00790000       2.13700000      -0.59320000
H       -2.20110000       3.48760000       1.45620000
H       -1.32800000       2.12690000       2.17410000
H       -0.03600000       4.48850000       2.35930000
H        2.13620000       3.52030000       1.43800000
H        1.28970000       2.14660000       2.16310000
H        1.94620000       2.16690000      -0.60980000
H       -0.94090000       5.02610000      -0.11580000
H        0.83980000       5.03960000      -0.12330000
