19
Properties=species:S:1:pos:R:3 gdb_90724=T pbc="F F F"
C       -0.32820000       1.26750000      -0.23140000
C        0.30210000      -0.10110000      -0.07370000
O        1.66080000      -0.12660000      -0.60270000
C        2.20200000      -0.49040000       0.67870000
C        0.79190000      -0.48970000       1.34050000
C        0.90770000      -2.01450000       1.61520000
C        2.26420000      -2.01000000       0.89090000
C        2.92440000      -3.01310000       0.05980000
O        3.40600000      -2.69210000       1.37520000
H        0.26250000       2.03010000       0.28570000
H       -0.38590000       1.53870000      -1.29000000
H       -1.34310000       1.27110000       0.18160000
H       -0.31720000      -0.86760000      -0.56030000
H        3.07100000       0.10440000       0.97190000
H        0.49780000       0.16100000       2.16260000
H        1.02590000      -2.24630000       2.67730000
H        0.12020000      -2.64950000       1.19930000
H        2.48210000      -4.00320000      -0.04320000
H        3.56140000      -2.69560000      -0.76410000
