18
Properties=species:S:1:pos:R:3 gdb_102773=T pbc="F F F"
C        0.13560000       1.52510000      -0.66680000
C        0.31960000       0.12570000      -0.13090000
O        1.40820000      -0.39970000      -0.05420000
C       -0.94210000      -0.63310000       0.30340000
C       -1.99490000      -0.66830000      -0.82180000
O       -1.45310000      -1.16470000      -2.03140000
N       -0.54060000      -1.97120000       0.69470000
C       -1.30560000      -2.74040000       1.51510000
O       -2.43940000      -2.47110000       1.85550000
H        1.09450000       2.04420000      -0.66700000
H       -0.22930000       1.45410000      -1.69790000
H       -0.60370000       2.08980000      -0.09130000
H       -1.38760000      -0.10980000       1.16270000
H       -2.84700000      -1.26110000      -0.46930000
H       -2.35010000       0.34450000      -1.03230000
H       -1.16100000      -2.06750000      -1.86160000
H        0.45400000      -2.14760000       0.61610000
H       -0.78170000      -3.66400000       1.82980000
