18
Properties=species:S:1:pos:R:3 gdb_115982=T pbc="F F F"
C       -0.02630000       1.52110000      -0.10850000
C        0.06180000      -0.00740000      -0.01190000
N        0.68030000      -0.66000000      -1.15600000
C        0.05330000      -0.68880000      -2.48280000
C        1.22740000      -1.19170000      -3.36640000
N        2.45170000      -1.02950000      -2.55910000
C        2.04010000      -0.74440000      -1.37850000
C        2.95150000      -0.55020000      -0.28000000
N        3.65610000      -0.37890000       0.61980000
H        0.97060000       1.96650000      -0.17850000
H       -0.60820000       1.84080000      -0.97810000
H       -0.51470000       1.92270000       0.78450000
H        0.63250000      -0.28990000       0.87800000
H       -0.93910000      -0.43640000       0.11000000
H       -0.81400000      -1.35560000      -2.49150000
H       -0.28450000       0.31400000      -2.77960000
H        1.11670000      -2.25380000      -3.61810000
H        1.31790000      -0.64350000      -4.30750000
