16
Properties=species:S:1:pos:R:3 gdb_19769=T pbc="F F F"
C        0.04020000       1.54670000       0.13120000
C        1.52620000       1.82980000      -0.01240000
C        2.39870000       0.79040000       0.67950000
C        1.73290000      -0.17510000       1.64570000
O        0.44140000      -0.59810000       1.19210000
C        0.04760000       0.01140000      -0.01400000
O        0.99450000      -0.25350000      -1.03980000
C        2.05580000       0.64200000      -0.77730000
H       -0.39290000       1.84090000       1.09010000
H       -0.52840000       2.01770000      -0.67710000
H        1.89070000       2.83620000      -0.17540000
H        3.41210000       1.07940000       0.93950000
H        2.35390000      -1.07210000       1.76730000
H        1.62310000       0.28660000       2.63750000
H       -0.90030000      -0.44710000      -0.29500000
H        2.78680000       0.68140000      -1.57420000
