19
Properties=species:S:1:pos:R:3 gdb_58143=T pbc="F F F"
C       -0.01150000       1.53960000      -0.09840000
C       -0.04860000       0.05570000       0.29260000
C        0.57860000      -0.15730000       1.67880000
C       -1.48960000      -0.51780000       0.22540000
O       -2.41360000       0.10540000       1.10330000
C       -2.08210000      -0.30200000      -1.17910000
O       -1.53420000      -0.62810000      -2.19510000
C       -1.49800000      -2.03840000       0.47120000
O       -0.63560000      -2.79430000       0.11700000
H        1.00810000       1.92720000      -0.01400000
H       -0.34120000       1.69830000      -1.12850000
H       -0.65380000       2.13300000       0.56040000
H        0.51610000      -0.53000000      -0.43960000
H        0.59320000      -1.21110000       1.96830000
H        1.61210000       0.20080000       1.67890000
H        0.05300000       0.41350000       2.45580000
H       -2.04850000       0.09640000       1.99400000
H       -3.07880000       0.18800000      -1.15400000
H       -2.40690000      -2.37480000       1.01950000
