18
Properties=species:S:1:pos:R:3 gdb_9365=T pbc="F F F"
C       -0.07390000       1.32730000       0.11390000
O        0.00070000      -0.07470000       0.01820000
C        0.65840000      -0.50720000      -1.15210000
C        0.67160000      -2.02880000      -1.13510000
C        1.35500000      -2.60840000      -2.35220000
O        1.83780000      -1.97090000      -3.25560000
O        1.35880000      -3.95550000      -2.30460000
C        1.98440000      -4.60680000      -3.41720000
H        0.92580000       1.78960000       0.13790000
H       -0.63190000       1.76580000      -0.72870000
H       -0.59520000       1.56480000       1.04440000
H        0.14320000      -0.13960000      -2.05340000
H        1.68720000      -0.11640000      -1.19410000
H        1.17690000      -2.39600000      -0.23520000
H       -0.35120000      -2.41790000      -1.08370000
H        3.03460000      -4.31430000      -3.49560000
H        1.89960000      -5.67570000      -3.22120000
H        1.47890000      -4.34760000      -4.35100000
