18
Properties=species:S:1:pos:R:3 gdb_18871=T pbc="F F F"
C       -0.14770000       1.59260000      -0.01840000
C        0.06430000       0.08260000      -0.02930000
C        0.74430000      -0.57910000      -1.23230000
C        2.25180000      -0.47180000      -1.09960000
O        2.81190000       0.54970000      -0.29950000
C        2.37760000       0.30020000       1.04600000
C        1.14960000      -0.59330000       0.89080000
C        1.54320000      -1.50710000      -0.30340000
H        0.77830000       2.12690000      -0.24310000
H       -0.88850000       1.87600000      -0.77470000
H       -0.52420000       1.93640000       0.95210000
H       -0.88900000      -0.42510000       0.15460000
H        0.27440000      -0.81330000      -2.18210000
H        2.86510000      -0.72980000      -1.95470000
H        3.17370000      -0.20340000       1.61580000
H        2.16370000       1.26320000       1.52040000
H        0.79750000      -1.04740000       1.81660000
H        1.70660000      -2.57610000      -0.31290000
