19
Properties=species:S:1:pos:R:3 gdb_6128=T pbc="F F F"
C        0.00220000       1.44900000       0.07170000
N       -0.00210000       0.01040000       0.05070000
C       -1.08490000      -0.97340000       0.04660000
C        0.01360000      -2.09160000       0.01980000
C        0.09120000      -2.95750000       1.27550000
C        0.06700000      -2.92080000      -1.26160000
C        1.01810000      -0.90540000       0.02760000
O        2.21740000      -0.78350000       0.01790000
H        1.04480000       1.77630000       0.06650000
H       -0.50410000       1.86790000      -0.80700000
H       -0.48690000       1.84190000       0.97190000
H       -1.70980000      -0.95210000       0.94750000
H       -1.72670000      -0.92600000      -0.84140000
H       -0.72430000      -3.68890000       1.29940000
H        1.03850000      -3.50490000       1.29960000
H        0.03260000      -2.35160000       2.18530000
H       -0.00880000      -2.28890000      -2.15230000
H        1.01370000      -3.46690000      -1.31950000
H       -0.74890000      -3.65150000      -1.29110000
