19
Properties=species:S:1:pos:R:3 gdb_56548=T pbc="F F F"
C       -0.13720000       1.49090000       0.07160000
C       -0.04150000      -0.03440000      -0.12480000
C       -1.37370000      -0.57580000      -0.42180000
N       -2.41620000      -0.99270000      -0.69850000
C        0.95200000      -0.47640000      -1.24490000
C        2.35300000       0.11570000      -1.05170000
C        1.05170000      -2.01080000      -1.21250000
N        0.40580000      -2.66730000      -2.21970000
O        1.68600000      -2.58330000      -0.34730000
H        0.81470000       1.89090000       0.42510000
H       -0.40190000       1.99090000      -0.86480000
H       -0.90330000       1.73070000       0.81280000
H        0.30090000      -0.49780000       0.80860000
H        0.54410000      -0.14730000      -2.20780000
H        2.34050000       1.20680000      -1.09640000
H        2.76890000      -0.20460000      -0.09340000
H        3.02200000      -0.24330000      -1.83890000
H       -0.31340000      -2.20260000      -2.74970000
H        0.32570000      -3.66880000      -2.12400000
