18
Properties=species:S:1:pos:R:3 gdb_47855=T pbc="F F F"
O       -0.02750000       0.03500000      -0.39350000
C       -0.04480000       1.19120000      -0.05040000
N       -1.17630000       1.85070000       0.35020000
C       -1.38150000       3.22580000       0.56390000
C       -0.80490000       4.29230000       0.00140000
C        0.22820000       4.48740000      -1.08240000
C        0.64770000       3.29810000      -1.96370000
C        1.60080000       2.34140000      -1.25220000
O        1.06020000       1.98880000       0.02600000
H       -1.97400000       1.24330000       0.46360000
H       -2.15470000       3.40170000       1.30670000
H       -1.16160000       5.23610000       0.40960000
H       -0.16330000       5.27660000      -1.73810000
H        1.12930000       4.92660000      -0.62640000
H       -0.23800000       2.75430000      -2.31320000
H        1.14940000       3.67640000      -2.86220000
H        1.79210000       1.43650000      -1.84000000
H        2.55540000       2.82780000      -1.03420000
