25
Properties=species:S:1:pos:R:3 gdb_100051=T pbc="F F F"
C        0.24740000       1.49500000       0.05250000
C       -0.01430000      -0.02280000       0.10080000
C        0.41270000      -0.56920000       1.47530000
C       -1.51640000      -0.28910000      -0.10230000
O       -2.25440000       0.35630000       0.92780000
C        0.73210000      -0.69230000      -1.07000000
C        2.28780000      -0.71710000      -1.12800000
C        2.19590000      -2.10780000      -1.81170000
C        0.74810000      -2.23820000      -1.26820000
H        1.31030000       1.71200000       0.19970000
H       -0.04910000       1.91540000      -0.91550000
H       -0.32050000       2.01070000       0.83040000
H       -0.19620000      -0.11320000       2.25920000
H        0.27770000      -1.65360000       1.54420000
H        1.46220000      -0.34510000       1.68800000
H       -1.81990000       0.08700000      -1.09320000
H       -1.69940000      -1.37530000      -0.09060000
H       -3.18560000       0.15490000       0.80190000
H        0.36680000      -0.23540000      -1.99960000
H        2.78900000       0.08880000      -1.66960000
H        2.73310000      -0.79410000      -0.13190000
H        2.21260000      -2.02420000      -2.90220000
H        2.92060000      -2.86870000      -1.51250000
H        0.72830000      -2.77480000      -0.31530000
H       -0.00800000      -2.67520000      -1.92580000
