18
Properties=species:S:1:pos:R:3 gdb_69349=T pbc="F F F"
C       -0.02660000       1.55620000       0.06680000
C        0.02990000       0.05810000       0.00130000
C       -0.87320000      -0.85440000       0.77740000
C        0.61330000      -0.94760000       1.00590000
C        1.25380000      -1.75120000      -0.12580000
O        0.82550000      -3.09400000      -0.16830000
C        0.63550000      -0.73540000      -1.16620000
C        2.72360000      -1.67960000      -0.10600000
N        3.87920000      -1.64620000      -0.11610000
H        0.94370000       2.00350000      -0.17590000
H       -0.76340000       1.95470000      -0.64080000
H       -0.31310000       1.89590000       1.06710000
H       -1.41560000      -0.38800000       1.59380000
H       -1.40130000      -1.67170000       0.29540000
H        1.07010000      -0.78690000       1.97410000
H        1.24650000      -3.53000000      -0.91830000
H       -0.07230000      -1.19030000      -1.86610000
H        1.40140000      -0.19040000      -1.72120000
