17
Properties=species:S:1:pos:R:3 gdb_52460=T pbc="F F F"
O       -0.55180000       0.69090000       0.32090000
C       -0.12400000       1.55670000      -0.39320000
C        1.22570000       2.22310000      -0.18220000
O        1.48610000       3.05440000      -1.28710000
C        2.68870000       3.78600000      -1.18640000
C        2.74080000       4.75920000      -2.34980000
O        1.74600000       5.77310000      -2.20840000
C        0.53660000       5.54040000      -2.76500000
O       -0.38910000       6.27670000      -2.61000000
H       -0.68650000       1.95060000      -1.26770000
H        1.18850000       2.79790000       0.75880000
H        1.99520000       1.44460000      -0.05820000
H        2.72840000       4.34250000      -0.23750000
H        3.56370000       3.11640000      -1.22570000
H        3.70570000       5.27130000      -2.37080000
H        2.60920000       4.21870000      -3.29520000
H        0.51610000       4.62120000      -3.37830000
