16
Properties=species:S:1:pos:R:3 gdb_124410=T pbc="F F F"
C       -0.02710000       1.55790000       0.04050000
C       -0.03380000       0.02170000       0.05470000
C        0.71630000      -0.52000000       1.18830000
C        1.35700000      -0.94000000       2.11250000
N       -1.40950000      -0.49090000       0.03550000
N       -2.31120000      -0.15150000       0.94740000
C       -3.39670000      -0.83570000       0.58100000
C       -3.09060000      -1.57830000      -0.56690000
N       -1.81820000      -1.34550000      -0.89610000
H        1.00410000       1.91770000       0.02150000
H       -0.55090000       1.92490000      -0.84590000
H       -0.52180000       1.94360000       0.93330000
H        0.39680000      -0.35950000      -0.87560000
H        1.91570000      -1.32220000       2.93100000
H       -4.31490000      -0.76090000       1.14140000
H       -3.70270000      -2.24400000      -1.15400000
