16
Properties=species:S:1:pos:R:3 gdb_129278=T pbc="F F F"
N       -0.16000000       1.29710000       0.04240000
C       -0.05140000       0.03620000       0.04580000
O        1.09100000      -0.73400000       0.04310000
N        0.75550000      -2.14040000       0.03680000
C       -0.53180000      -2.13240000       0.04130000
C       -1.61390000      -3.16720000       0.00920000
C       -2.86370000      -2.32870000       0.41690000
C       -2.52740000      -0.85560000       0.04920000
N       -1.07760000      -0.88520000       0.05970000
H        0.75580000       1.73960000       0.03960000
H       -1.70970000      -3.56890000      -1.00520000
H       -1.41920000      -4.00560000       0.67950000
H       -3.77570000      -2.67530000      -0.07120000
H       -3.01510000      -2.40450000       1.49700000
H       -2.90210000      -0.57350000      -0.94170000
H       -2.90990000      -0.13390000       0.77430000
