17
Properties=species:S:1:pos:R:3 gdb_102044=T pbc="F F F"
C       -0.24150000       1.34530000       0.17300000
O       -0.22850000      -0.08190000       0.34030000
C        0.83540000      -0.58350000       0.99080000
O        1.73460000       0.08500000       1.43190000
C        0.75830000      -2.10350000       1.09200000
C        1.26170000      -2.55520000       2.48060000
O        1.20090000      -3.95720000       2.63870000
C       -0.64010000      -2.64360000       0.82890000
O       -0.91960000      -3.37260000      -0.08370000
H        0.62640000       1.66820000      -0.40650000
H       -1.16470000       1.57010000      -0.35970000
H       -0.22450000       1.84360000       1.14500000
H        1.41590000      -2.51180000       0.31360000
H        2.26700000      -2.14720000       2.63970000
H        0.61370000      -2.13900000       3.25980000
H        1.80790000      -4.36300000       2.01080000
H       -1.39990000      -2.32540000       1.57660000
