13
Properties=species:S:1:pos:R:3 gdb_42654=T pbc="F F F"
O        0.01370000       0.05440000       0.18280000
C        0.01390000       1.24480000       0.11110000
C       -1.05530000       2.29650000      -0.07940000
N       -0.54450000       3.58950000       0.46850000
C        0.79790000       3.26600000       1.09660000
C        1.10800000       2.32240000      -0.07500000
C       -0.03150000       3.12070000      -0.83900000
C       -0.11380000       3.77140000      -2.09480000
N       -0.14750000       4.28770000      -3.12960000
H       -2.11890000       2.21280000      -0.25450000
H        1.38930000       4.18250000       1.10490000
H        0.74180000       2.83460000       2.10070000
H        2.10290000       2.06600000      -0.42500000
