16
Properties=species:S:1:pos:R:3 gdb_17037=T pbc="F F F"
C       -0.17540000       1.50340000       0.21500000
C       -0.04340000      -0.00080000       0.07410000
C        1.18490000      -0.57380000      -0.68470000
O        2.06130000      -0.14540000       0.41940000
C        0.87610000      -0.77380000       1.06570000
C        1.01560000      -1.94660000       0.06490000
C       -0.09890000      -2.90070000      -0.25660000
O       -1.20580000      -2.87900000       0.22410000
H        0.79130000       1.95900000       0.43730000
H       -0.56680000       1.94490000      -0.70790000
H       -0.87530000       1.75440000       1.01880000
H       -0.99600000      -0.49030000      -0.13360000
H        1.53380000      -0.40160000      -1.70390000
H        0.85660000      -0.80950000       2.15480000
H        1.97310000      -2.47050000       0.13290000
H        0.17900000      -3.67790000      -1.00550000
