19
Properties=species:S:1:pos:R:3 gdb_68600=T pbc="F F F"
C        0.00790000       1.51040000       0.09310000
C       -0.03890000       0.01750000      -0.02750000
C        0.28740000      -0.79940000      -1.31420000
C       -0.40030000      -1.94300000      -0.49740000
C        0.55860000      -2.03620000       0.69660000
O        0.77680000      -0.63020000       0.97270000
C       -1.32570000      -0.82910000       0.02810000
C       -2.54790000      -0.77500000       0.81370000
O       -2.52930000      -0.44910000      -0.59850000
H        1.01200000       1.88730000      -0.12220000
H       -0.69760000       1.96390000      -0.60830000
H       -0.26040000       1.81860000       1.10840000
H       -0.30270000      -0.48900000      -2.17750000
H        1.34420000      -0.91440000      -1.56700000
H       -0.77240000      -2.86250000      -0.94490000
H        0.11690000      -2.52650000       1.57210000
H        1.51090000      -2.52370000       0.45650000
H       -3.07900000      -1.69190000       1.06510000
H       -2.73380000       0.06730000       1.47800000
