17
Properties=species:S:1:pos:R:3 gdb_26751=T pbc="F F F"
C       -0.26180000       1.40970000       0.03490000
C        0.12070000      -0.03030000      -0.08340000
C        0.32520000      -0.76000000      -1.24150000
O        0.22800000      -0.47570000      -2.56370000
N        0.78650000      -1.98050000      -0.81830000
C        0.78860000      -3.46200000      -0.89050000
C        0.89330000      -3.46050000       0.68410000
C        0.74570000      -1.95460000       0.54530000
N        0.35530000      -0.82000000       1.05110000
H        0.56720000       2.02990000       0.39650000
H       -0.58640000       1.82380000      -0.92740000
H       -1.09080000       1.53370000       0.73930000
H        0.01640000       0.45870000      -2.65710000
H       -0.14740000      -3.87520000      -1.27360000
H        1.63520000      -3.87210000      -1.44510000
H        0.07070000      -3.97110000       1.18980000
H        1.84320000      -3.82430000       1.08330000
