17
Properties=species:S:1:pos:R:3 gdb_18988=T pbc="F F F"
C        0.20390000       1.61580000      -0.27660000
C        1.52810000       1.50490000       0.53400000
N        1.34520000       0.02650000       0.71590000
C        0.05130000       0.09260000      -0.06490000
C        0.62620000      -0.87000000      -1.13280000
O        1.29190000      -0.22230000      -2.23540000
C        2.58140000      -0.34360000      -1.58300000
C        1.93770000      -0.90400000      -0.30390000
H       -0.57520000       2.22370000       0.18660000
H        0.32280000       1.90770000      -1.32090000
H        2.44120000       1.80240000       0.01130000
H        1.51540000       2.01590000       1.50150000
H       -0.84850000      -0.26190000       0.44890000
H        0.03110000      -1.73020000      -1.45030000
H        3.21360000      -1.07980000      -2.09660000
H        3.11930000       0.60840000      -1.53150000
H        2.39650000      -1.78880000       0.13940000
