19
Properties=species:S:1:pos:R:3 gdb_66948=T pbc="F F F"
O        0.01840000       1.35350000       0.09890000
C        0.06520000      -0.01940000      -0.00220000
C       -0.95280000      -0.86580000       0.76890000
C       -1.06970000      -2.20770000       0.04800000
C        0.45740000      -2.06370000      -0.22400000
C        0.53820000      -1.05520000       0.99820000
C        0.53630000      -0.85220000      -1.17110000
C        0.26490000      -0.73870000      -2.63520000
C        1.66480000      -0.49780000      -2.08590000
H        0.92320000       1.68520000       0.07790000
H       -1.66070000      -0.37920000       1.42790000
H       -1.28460000      -3.01840000       0.75020000
H       -1.72650000      -2.28630000      -0.82590000
H        1.09710000      -2.93000000      -0.38070000
H        1.15270000      -0.99840000       1.88460000
H        0.09490000      -1.64760000      -3.20440000
H       -0.29320000       0.12220000      -2.98930000
H        2.03430000       0.52420000      -2.08480000
H        2.42810000      -1.24270000      -2.28820000
