19
Properties=species:S:1:pos:R:3 gdb_63616=T pbc="F F F"
C       -0.00810000       1.60350000       0.04800000
C       -0.00200000       0.08870000       0.08860000
C       -1.34780000      -0.55240000      -0.19440000
C        1.22460000      -0.64500000      -0.32790000
C        0.85720000      -0.64910000       1.15140000
C        1.70260000       0.09000000       2.09970000
O        2.44740000       1.01600000       1.83700000
C        1.63980000      -0.35600000       3.56940000
O        0.97180000      -1.27070000       3.97410000
H        0.96470000       2.02140000       0.31000000
H       -0.26830000       1.94270000      -0.96120000
H       -0.75650000       2.01220000       0.73620000
H       -1.70230000      -0.26490000      -1.19110000
H       -1.29240000      -1.64440000      -0.16010000
H       -2.10040000      -0.22760000       0.53210000
H        1.12590000      -1.58730000      -0.85640000
H        2.10380000      -0.06050000      -0.57890000
H        0.40970000      -1.54310000       1.56840000
H        2.29220000       0.26200000       4.22230000
