17
Properties=species:S:1:pos:R:3 gdb_42825=T pbc="F F F"
O       -0.02980000       0.01500000       0.14830000
C       -0.03390000       1.20280000       0.01790000
C       -1.11500000       2.31720000       0.04750000
C       -0.01550000       3.16100000       0.76620000
C        1.04530000       2.30350000      -0.00850000
C        1.11560000       2.88650000      -1.42010000
C        0.66420000       2.06880000      -2.61690000
C       -0.24170000       3.12290000      -2.02510000
O       -1.38340000       2.78000000      -1.27360000
H       -2.07880000       2.13750000       0.52290000
H       -0.01820000       4.23260000       0.56120000
H       -0.01570000       2.97380000       1.84260000
H        2.02090000       2.08340000       0.42600000
H        1.88440000       3.63920000      -1.56670000
H        1.11020000       2.28510000      -3.58150000
H        0.41680000       1.02450000      -2.46030000
H       -0.42570000       4.02150000      -2.60400000
