17
Properties=species:S:1:pos:R:3 gdb_84735=T pbc="F F F"
O        0.38040000       1.23640000      -0.13440000
C        0.05490000      -0.09190000       0.16210000
C        0.46640000      -0.46230000       1.56210000
C        0.49480000      -1.71850000       2.03310000
C        0.03120000      -2.87160000       1.27530000
C       -1.02050000      -2.86020000       0.43890000
C       -1.98670000      -1.71740000       0.27640000
C       -1.43460000      -0.34630000      -0.10220000
O       -2.12070000       0.52850000      -0.57410000
H       -0.43210000       1.62530000      -0.49670000
H        0.56020000      -0.79130000      -0.53530000
H        0.80650000       0.37550000       2.16250000
H        0.92010000      -1.90280000       3.01680000
H        0.57290000      -3.80500000       1.41360000
H       -1.26350000      -3.76680000      -0.10760000
H       -2.78680000      -1.95680000      -0.42790000
H       -2.47910000      -1.53050000       1.24460000
