17
Properties=species:S:1:pos:R:3 gdb_85274=T pbc="F F F"
C       -0.30850000       1.37270000       0.08830000
C        0.13840000      -0.05780000       0.00350000
O       -0.65850000      -1.03630000       0.68990000
C        0.70700000      -0.84130000       1.11970000
C        1.62820000      -1.88060000       0.53340000
O        2.51960000      -2.43930000       1.11800000
C        1.27950000      -1.99600000      -0.95270000
C        0.61870000      -0.64550000      -1.32870000
O       -0.43090000      -0.73620000      -2.27040000
H        0.52770000       2.05040000      -0.11080000
H       -1.08250000       1.56280000      -0.66170000
H       -0.71560000       1.59360000       1.07750000
H        0.85070000      -0.46290000       2.12700000
H        2.16670000      -2.23380000      -1.54110000
H        0.56230000      -2.81270000      -1.08840000
H        1.35790000       0.02560000      -1.77880000
H       -1.13230000      -1.25540000      -1.85760000
