18
Properties=species:S:1:pos:R:3 gdb_72028=T pbc="F F F"
O       -0.06680000       1.37950000      -0.04440000
C        0.02780000      -0.00880000      -0.05860000
C        0.85450000      -0.71860000      -1.14900000
C        0.71090000      -2.12720000      -0.52810000
C        1.35530000      -1.90290000       0.86490000
C        0.35450000      -0.82640000       1.27140000
N       -0.98910000      -1.52940000       1.19270000
C       -0.79900000      -2.16600000      -0.15330000
C       -1.30360000      -0.77210000      -0.05480000
H        0.82370000       1.74580000      -0.04360000
H        0.38610000      -0.61870000      -2.13270000
H        1.89780000      -0.38420000      -1.20690000
H        1.07000000      -2.96920000      -1.11750000
H        1.30210000      -2.77680000       1.52010000
H        2.39210000      -1.55740000       0.80280000
H        0.48980000      -0.26710000       2.19550000
H       -1.43900000      -3.01260000      -0.36790000
H       -2.29290000      -0.40090000      -0.29900000
