18
Properties=species:S:1:pos:R:3 gdb_68565=T pbc="F F F"
C       -0.12820000       1.53490000       0.04460000
C       -0.04210000       0.03200000       0.04520000
C        0.51300000      -0.82830000      -1.15020000
C       -0.33340000      -1.91640000      -0.40770000
C        0.42780000      -1.99710000       0.92550000
C        0.61900000      -0.71180000       1.22760000
N       -1.30000000      -0.81460000      -0.08140000
C       -2.44870000      -0.54570000      -0.75570000
O       -3.11380000      -1.36360000      -1.36110000
H        0.87790000       1.96070000       0.11310000
H       -0.59250000       1.91320000      -0.87040000
H       -0.70640000       1.89720000       0.90050000
H        0.08410000      -0.54040000      -2.11480000
H        1.59370000      -0.97560000      -1.20840000
H       -0.73280000      -2.80410000      -0.88860000
H        0.70640000      -2.89570000       1.45540000
H        1.09770000      -0.24710000       2.07760000
H       -2.75990000       0.51180000      -0.63160000
