18
Properties=species:S:1:pos:R:3 gdb_108954=T pbc="F F F"
C       -0.07570000       1.43360000      -0.19120000
N       -0.13570000       0.00040000       0.02520000
C       -1.32940000      -0.64240000       0.03160000
N       -2.49920000      -0.11420000       0.08410000
C       -3.42230000      -1.21950000       0.06420000
C       -3.41480000      -2.09940000      -1.18740000
N       -2.84540000      -1.65520000      -2.42680000
C       -2.57550000      -2.47530000       0.01750000
O       -1.23290000      -2.00750000       0.00800000
H        0.92920000       1.78730000       0.04910000
H       -0.31860000       1.71880000      -1.22390000
H       -0.79200000       1.92390000       0.47060000
H        0.65630000      -0.56010000      -0.24190000
H       -4.33560000      -1.10960000       0.63670000
H       -4.30790000      -2.71550000      -1.28440000
H       -2.70170000      -0.65030000      -2.40500000
H       -1.93930000      -2.08190000      -2.58890000
H       -2.69620000      -3.39430000       0.57620000
