20
Properties=species:S:1:pos:R:3 gdb_8884=T pbc="F F F"
C       -0.11370000       1.61810000      -0.11790000
C       -0.23750000       0.09410000      -0.17700000
C        0.84650000      -0.53700000      -1.07340000
O        2.12800000      -0.16790000      -0.63810000
C        0.74200000      -2.06560000      -1.11780000
O        1.69750000      -2.72490000      -0.76040000
C       -0.54230000      -2.70220000      -1.61110000
C       -0.40630000      -4.19520000      -1.90800000
H        0.87750000       1.90490000       0.24040000
H       -0.25670000       2.06350000      -1.10870000
H       -0.86390000       2.04550000       0.55410000
H       -0.13890000      -0.32840000       0.83080000
H       -1.22840000      -0.18720000      -0.55240000
H        0.68680000      -0.17760000      -2.10680000
H        2.58330000      -1.00770000      -0.46010000
H       -1.30590000      -2.53080000      -0.83950000
H       -0.89430000      -2.14540000      -2.48890000
H        0.32530000      -4.37210000      -2.70120000
H       -0.06530000      -4.73680000      -1.02290000
H       -1.36560000      -4.61240000      -2.22540000
