21
Properties=species:S:1:pos:R:3 gdb_57574=T pbc="F F F"
C       -0.07600000       1.70780000      -0.11110000
C       -0.00800000       0.18320000       0.00660000
O        0.72890000      -0.11810000       1.18310000
C       -1.41990000      -0.40570000       0.06750000
C       -1.69640000      -1.73030000       0.72940000
C       -2.17490000      -0.44990000       1.36860000
C        0.72860000      -0.40640000      -1.19910000
C        2.19180000      -0.43190000      -1.27330000
O        1.44870000      -1.61660000      -0.93350000
H        0.92930000       2.13550000      -0.14740000
H       -0.61760000       2.00640000      -1.01450000
H       -0.60060000       2.12170000       0.75380000
H        1.09290000      -1.00450000       1.04260000
H       -2.00920000      -0.18810000      -0.82040000
H       -2.42340000      -2.38930000       0.26820000
H       -0.87290000      -2.24480000       1.21120000
H       -1.64370000      -0.12050000       2.25430000
H       -3.23560000      -0.22540000       1.35880000
H        0.16260000      -0.42060000      -2.13080000
H        2.68510000      -0.46300000      -2.24250000
H        2.77010000      -0.00660000      -0.45690000
