17
Properties=species:S:1:pos:R:3 gdb_20542=T pbc="F F F"
C        0.10170000       1.52840000       0.08680000
C       -0.05280000       0.00270000      -0.05180000
C       -1.52750000      -0.42020000      -0.07930000
C        0.71340000      -0.48960000      -1.24740000
N        2.01050000      -0.32390000      -1.46140000
C        2.21050000      -0.93610000      -2.65950000
N        1.13360000      -1.47140000      -3.20900000
N        0.18420000      -1.17310000      -2.28690000
H        1.15770000       1.80570000       0.09350000
H       -0.38120000       2.04620000      -0.74910000
H       -0.36120000       1.87540000       1.01580000
H        0.41990000      -0.45720000       0.82580000
H       -2.05420000       0.02390000      -0.93230000
H       -1.64050000      -1.50850000      -0.12940000
H       -2.03430000      -0.07870000       0.82720000
H        3.17600000      -0.99000000      -3.14030000
H       -0.76640000      -1.46520000      -2.43940000
