17
Properties=species:S:1:pos:R:3 gdb_2580=T pbc="F F F"
O        0.30220000       1.19900000      -0.42400000
C        0.05890000      -0.05450000       0.18580000
C       -1.38960000      -0.50240000       0.07920000
C       -2.35190000       0.27010000       0.94790000
O       -2.30730000       1.65040000       0.56290000
C       -1.87680000      -0.99170000      -1.26140000
C       -1.67770000      -1.97010000      -0.13210000
H       -0.42590000       1.77290000      -0.15110000
H        0.70900000      -0.77880000      -0.31820000
H        0.35370000      -0.04520000       1.25090000
H       -3.37190000      -0.12630000       0.83440000
H       -2.06580000       0.16310000       2.00570000
H       -2.73420000       2.17400000       1.24730000
H       -2.89250000      -0.75070000      -1.55620000
H       -1.16530000      -0.99420000      -2.07950000
H       -0.83220000      -2.64820000      -0.17770000
H       -2.55730000      -2.39490000       0.34120000
