13
Properties=species:S:1:pos:R:3 gdb_24516=T pbc="F F F"
O       -0.06440000       1.34270000       0.00990000
C        1.25710000       1.70790000      -0.00060000
N        2.12180000       0.75640000      -0.01410000
C        1.33730000      -0.40140000      -0.01300000
C       -0.01250000      -0.02140000       0.00190000
C       -1.02940000      -0.95410000       0.00640000
C       -0.58930000      -2.27740000      -0.00510000
C        0.78290000      -2.57120000      -0.01970000
N        1.76050000      -1.66000000      -0.02400000
H        1.44210000       2.77160000       0.00350000
H       -2.07850000      -0.68470000       0.01780000
H       -1.30610000      -3.09040000      -0.00280000
H        1.10310000      -3.60980000      -0.02850000
