16
Properties=species:S:1:pos:R:3 gdb_45191=T pbc="F F F"
O       -0.01730000       0.00830000      -0.25460000
C        0.02200000       1.17950000      -0.01130000
O       -1.12290000       1.90710000       0.17090000
C       -0.88030000       3.20410000       0.74080000
C        0.01890000       3.01050000       1.97670000
N        1.22560000       3.14710000       1.09740000
C        0.35960000       3.90670000       0.09060000
C        1.01560000       3.14700000      -1.05720000
C        1.26380000       2.05480000       0.02550000
H       -1.84470000       3.71040000       0.79260000
H       -0.00070000       3.85650000       2.66940000
H       -0.08980000       2.07220000       2.52830000
H        0.35780000       4.99800000       0.13580000
H        0.42810000       2.87820000      -1.93590000
H        1.94900000       3.62920000      -1.35220000
H        2.17050000       1.45320000       0.00700000
