16
Properties=species:S:1:pos:R:3 gdb_30565=T pbc="F F F"
C       -0.23920000       1.60090000       0.07300000
N        0.00800000       0.17540000       0.03950000
C       -0.99330000      -0.58720000      -0.13110000
N       -0.89420000      -1.95340000      -0.18370000
C        0.27260000      -2.68550000      -0.05760000
C        1.56350000      -2.30420000       0.13490000
O        2.31340000      -3.46000000       0.18400000
C        1.42640000      -4.45300000       0.01890000
N        0.19880000      -4.06940000      -0.13000000
H        0.33790000       2.09920000      -0.71540000
H       -1.30040000       1.87110000      -0.05730000
H        0.10340000       2.01750000       1.02780000
H       -2.02590000      -0.23320000      -0.25430000
H       -1.72940000      -2.49870000      -0.31710000
H        2.06540000      -1.36480000       0.24650000
H        1.80850000      -5.46150000       0.02500000
