21
Properties=species:S:1:pos:R:3 gdb_115515=T pbc="F F F"
C        0.10060000       0.69460000       0.58040000
O       -0.04610000      -0.52100000      -0.11770000
C        0.71080000      -0.60370000      -1.31370000
C        2.18910000      -0.93350000      -1.06760000
O        2.26650000      -2.34410000      -0.91480000
C        1.10880000      -2.97970000      -1.49480000
C        0.42880000      -3.78210000      -0.38570000
O        1.34380000      -4.66580000       0.23080000
C        0.24670000      -1.84820000      -2.08050000
H        1.12690000       0.85490000       0.94210000
H       -0.18100000       1.55520000      -0.04660000
H       -0.56770000       0.65200000       1.44350000
H        0.59070000       0.32210000      -1.89540000
H        2.79760000      -0.60310000      -1.92430000
H        2.58920000      -0.46100000      -0.16510000
H        1.46280000      -3.67180000      -2.26900000
H       -0.01410000      -3.08040000       0.33680000
H       -0.37660000      -4.39440000      -0.80750000
H        2.11210000      -4.12420000       0.44990000
H       -0.82470000      -2.01100000      -1.94490000
H        0.44450000      -1.72040000      -3.14800000
