18
Properties=species:S:1:pos:R:3 gdb_49520=T pbc="F F F"
O       -0.01860000      -0.00510000       0.25780000
C        0.03130000       1.19970000       0.12120000
N        1.14610000       1.90690000      -0.18890000
C        2.58720000       1.59360000      -0.11430000
C        2.77710000       2.91660000      -0.93410000
C        1.54680000       3.32110000      -0.05170000
C        2.20520000       3.37990000       1.35390000
C        1.90810000       2.27280000       2.33290000
C        2.99010000       2.07540000       1.30570000
H       -0.86100000       1.85880000       0.17080000
H        2.91330000       0.61590000      -0.46040000
H        3.70480000       3.47180000      -0.78360000
H        2.52850000       2.80610000      -1.99090000
H        0.83130000       4.09100000      -0.33810000
H        2.63410000       4.31650000       1.68890000
H        2.25410000       2.44450000       3.34730000
H        0.98770000       1.70400000       2.27980000
H        4.02880000       1.99880000       1.60270000
