20
Properties=species:S:1:pos:R:3 gdb_108275=T pbc="F F F"
C       -0.05770000       1.54680000       0.02620000
C       -0.19300000       0.02130000      -0.05780000
C        0.64840000      -0.57540000      -1.15510000
C        0.33910000      -0.33030000      -2.65370000
C        0.57420000      -1.84550000      -2.94290000
C        0.89330000      -2.08950000      -1.43490000
C        2.32200000      -1.76430000      -1.08160000
N        3.38200000      -2.42830000      -0.98060000
O        2.09330000      -0.41190000      -0.89880000
H        0.98300000       1.83120000       0.20540000
H       -0.38290000       2.02730000      -0.90250000
H       -0.66680000       1.94790000       0.84110000
H        0.09880000      -0.43520000       0.89550000
H       -1.23900000      -0.25770000      -0.23620000
H       -0.68800000      -0.00500000      -2.83800000
H        1.02350000       0.36950000      -3.13630000
H       -0.33150000      -2.36350000      -3.26330000
H        1.38120000      -2.09610000      -3.63320000
H        0.41190000      -2.91690000      -0.91710000
H        4.16960000      -1.82930000      -0.72590000
