23
Properties=species:S:1:pos:R:3 gdb_109933=T pbc="F F F"
C       -0.54700000       1.63650000       0.02880000
O       -0.30890000       0.28480000       0.35480000
C       -1.37690000      -0.57050000       0.04620000
C       -1.45870000      -1.21310000      -1.38170000
C       -0.19190000      -1.12460000      -2.22790000
C       -1.70720000      -2.58830000      -0.69010000
C       -1.29270000      -1.97610000       0.68820000
C        0.08920000      -2.38140000       1.18540000
O       -2.25320000      -2.09190000       1.72700000
H        0.33370000       2.20530000       0.33760000
H       -0.70090000       1.78450000      -1.05020000
H       -1.42860000       2.02830000       0.55890000
H       -2.33460000      -0.11130000       0.32900000
H       -2.30940000      -0.85610000      -1.96910000
H        0.69680000      -1.44430000      -1.67690000
H       -0.28350000      -1.76090000      -3.11490000
H       -0.00980000      -0.10070000      -2.56990000
H       -2.75810000      -2.88500000      -0.68460000
H       -1.09920000      -3.42290000      -1.05170000
H        0.85570000      -2.25930000       0.41730000
H        0.37190000      -1.77260000       2.04760000
H        0.08160000      -3.43810000       1.48320000
H       -2.14280000      -2.95440000       2.14170000
