15
Properties=species:S:1:pos:R:3 gdb_43891=T pbc="F F F"
N        0.05240000       1.14560000       0.53550000
C        0.00190000      -0.01690000       0.08140000
O        1.01370000      -0.83770000      -0.41590000
C        0.06480000      -1.90570000      -0.71280000
C       -0.06740000      -2.91740000       0.45410000
C       -1.20440000      -2.04680000       1.07190000
C       -1.09190000      -1.03840000      -0.11330000
C        0.15440000      -2.37140000      -2.07920000
N        0.19680000      -2.77200000      -3.16240000
H        1.00100000       1.52310000       0.52410000
H       -0.39890000      -3.90420000       0.12690000
H        0.85270000      -3.01840000       1.03130000
H       -2.16740000      -2.55800000       1.09240000
H       -1.01290000      -1.61690000       2.05560000
H       -1.98880000      -0.73950000      -0.64940000
