16
Properties=species:S:1:pos:R:3 gdb_46068=T pbc="F F F"
O        0.27380000       0.13910000       0.41940000
C        0.12100000       1.28410000       0.12640000
C       -1.12060000       1.99940000      -0.38130000
O       -0.76990000       3.36480000      -0.42440000
C        0.63890000       3.47950000      -0.27110000
O        1.11610000       2.21830000       0.19060000
C        1.31520000       3.88110000      -1.56440000
C        2.75830000       3.61870000      -1.77050000
N        1.74450000       2.88810000      -2.55420000
H       -1.39480000       1.60580000      -1.36970000
H       -1.96130000       1.84060000       0.30140000
H        0.83170000       4.22420000       0.51070000
H        0.86880000       4.77660000      -1.99090000
H        3.35860000       4.32460000      -2.33630000
H        3.28810000       3.07900000      -0.99100000
H        1.65270000       1.94970000      -2.17090000
