19
Properties=species:S:1:pos:R:3 gdb_68777=T pbc="F F F"
C       -0.10520000       1.58800000       0.03650000
C        0.06270000       0.07630000       0.02750000
O       -1.20080000      -0.57680000      -0.08660000
C        1.13360000      -0.56370000      -0.93180000
C        1.74770000      -1.29360000       0.26950000
O        2.19570000      -2.59900000       0.24410000
C        2.20280000      -0.28530000       1.30360000
C        0.74440000      -0.61520000       1.21380000
O        0.04870000      -1.03440000       2.32080000
H        0.85360000       2.09670000       0.17070000
H       -0.53220000       1.93850000      -0.91160000
H       -0.77550000       1.88920000       0.84690000
H       -1.65200000      -0.23910000      -0.86690000
H        0.65330000      -1.25110000      -1.63130000
H        1.78680000       0.12910000      -1.47570000
H        3.14850000      -2.59570000       0.10090000
H        2.66520000      -0.74770000       2.17140000
H        2.60970000       0.68890000       1.03510000
H       -0.78200000      -1.39930000       1.98810000
