16
Properties=species:S:1:pos:R:3 gdb_126326=T pbc="F F F"
C        0.09360000       1.48630000       0.18200000
C       -0.01720000      -0.03090000      -0.06580000
C       -1.43390000      -0.52250000      -0.03880000
C       -2.11610000      -0.87670000      -1.14180000
N       -3.44440000      -1.31080000      -1.10910000
N       -4.09330000      -1.41420000      -0.07620000
O       -3.43040000      -1.06820000       1.19210000
C       -2.13150000      -0.63230000       1.24630000
N       -1.56810000      -0.35050000       2.34990000
H        1.14300000       1.79180000       0.14570000
H       -0.45160000       2.05060000      -0.58070000
H       -0.30830000       1.74240000       1.16380000
H        0.42750000      -0.28390000      -1.03390000
H        0.54250000      -0.55810000       0.71300000
H       -1.68950000      -0.84860000      -2.13650000
H       -2.20840000      -0.49780000       3.13160000
