19
Properties=species:S:1:pos:R:3 gdb_77155=T pbc="F F F"
C       -0.58790000       1.18760000       0.10270000
C        0.16390000      -0.13420000       0.09830000
C        1.02000000      -0.57510000      -1.14380000
C        2.17440000      -1.01580000      -0.19210000
C        1.45750000      -0.24170000       0.92070000
O        1.80540000       0.22850000       1.96540000
C        0.40900000      -1.61540000      -2.04390000
C        1.17580000      -2.71990000      -2.63190000
O        0.30770000      -2.94100000      -1.51530000
H        0.06610000       2.01360000      -0.19570000
H       -1.44160000       1.16490000      -0.58230000
H       -0.96390000       1.40880000       1.10590000
H       -0.49660000      -0.96400000       0.38440000
H        1.30360000       0.29980000      -1.73880000
H        2.13620000      -2.09380000      -0.00130000
H        3.19900000      -0.71790000      -0.42320000
H       -0.48690000      -1.28950000      -2.57640000
H        0.85100000      -3.16770000      -3.56970000
H        2.23970000      -2.80900000      -2.41730000
