25
Properties=species:S:1:pos:R:3 gdb_123006=T pbc="F F F"
C        0.13180000       1.54770000      -0.30040000
C        0.07290000       0.05570000      -0.05310000
C        1.33060000      -0.77990000       0.00290000
C        0.49680000      -0.58580000       1.25010000
C        1.02820000       0.19680000       2.43380000
C        1.87370000      -0.66620000       3.38110000
C        2.40930000       0.11080000       4.58670000
C        3.24280000      -0.74880000       5.52730000
O        3.68620000       0.07180000       6.59880000
H        1.01960000       2.00400000       0.14640000
H        0.16350000       1.76030000      -1.37490000
H       -0.74610000       2.05840000       0.11190000
H       -0.77670000      -0.42540000      -0.53230000
H        1.34540000      -1.75020000      -0.48170000
H        2.27750000      -0.24880000      -0.04510000
H       -0.10060000      -1.44720000       1.54330000
H        1.63390000       1.04290000       2.08790000
H        0.19040000       0.63290000       2.99570000
H        1.26940000      -1.51540000       3.73000000
H        2.70980000      -1.10140000       2.81750000
H        3.02660000       0.95330000       4.25010000
H        1.57870000       0.54400000       5.15780000
H        2.63540000      -1.59170000       5.89700000
H        4.09560000      -1.18120000       4.97810000
H        4.21380000      -0.46950000       7.19290000
