19
Properties=species:S:1:pos:R:3 gdb_17392=T pbc="F F F"
C       -0.02600000       1.54930000      -0.07310000
C        1.51830000       1.54850000       0.10340000
C        1.42080000       0.09690000       0.62710000
C        0.00480000      -0.00230000       0.00340000
C        2.48880000      -1.02700000       0.41220000
C        2.53480000      -1.22470000       1.93030000
N        2.94240000       0.08370000       2.50320000
C        1.52310000      -0.15610000       2.13880000
H       -0.53600000       1.99100000       0.78760000
H       -0.43260000       1.99870000      -0.98190000
H        2.03630000       1.59430000      -0.85990000
H        1.96800000       2.28140000       0.77670000
H       -0.76980000      -0.50630000       0.58950000
H        0.03800000      -0.45900000      -0.99100000
H        2.07080000      -1.88420000      -0.12320000
H        3.43330000      -0.72700000      -0.05040000
H        2.70330000      -2.14290000       2.47970000
H        3.01360000      -0.04380000       3.51300000
H        0.73610000      -0.06530000       2.87940000
