17
Properties=species:S:1:pos:R:3 gdb_64530=T pbc="F F F"
O        0.05710000       1.43830000      -0.02600000
C        0.04280000       0.04780000      -0.03500000
C        1.01390000      -0.48420000      -1.05010000
O        1.68780000       0.25270000      -1.73460000
C        0.01450000      -0.66320000       1.34860000
C       -1.49990000      -0.30680000       1.55760000
C       -1.86360000      -1.76140000       1.90910000
C       -0.79820000      -1.88920000       0.80290000
C       -1.35100000      -0.64020000       0.03090000
H        0.70940000       1.69790000      -0.69590000
H        1.08610000      -1.58490000      -1.14450000
H        0.79150000      -0.68030000       2.11410000
H       -1.88240000       0.62470000       1.97010000
H       -1.58160000      -2.11380000       2.90630000
H       -2.87620000      -2.09200000       1.65700000
H       -0.38530000      -2.79530000       0.35920000
H       -2.14370000      -0.63100000      -0.71830000
