15
Properties=species:S:1:pos:R:3 gdb_51999=T pbc="F F F"
O       -0.25500000       1.45080000       1.06880000
C        0.01210000       1.60720000      -0.09090000
C        1.43850000       1.58540000      -0.63490000
C        1.67140000       2.73650000      -1.60480000
O        0.92180000       2.96550000      -2.52140000
C        2.88290000       3.62120000      -1.31360000
O        3.17820000       4.50810000      -2.36940000
C        2.32700000       5.54840000      -2.55910000
O        2.45430000       6.31210000      -3.46330000
H       -0.76210000       1.78340000      -0.86460000
H        2.14790000       1.56440000       0.19560000
H        1.54860000       0.65840000      -1.21430000
H        2.69790000       4.15000000      -0.36470000
H        3.77210000       3.00190000      -1.16410000
H        1.54720000       5.61570000      -1.77830000
