19
Properties=species:S:1:pos:R:3 gdb_56750=T pbc="F F F"
O       -0.05370000       1.42880000       0.06630000
C        0.04700000       0.00680000       0.03720000
C        0.67710000      -0.47270000      -1.19810000
C        1.23750000      -0.84490000      -2.19470000
C        0.77190000      -0.52060000       1.26310000
C        2.24810000      -0.23320000       1.68110000
C        1.65700000      -1.14510000       2.79460000
C        0.37690000      -0.26230000       2.74770000
C        1.02590000      -2.00500000       1.66090000
H        0.83250000       1.78010000      -0.07680000
H       -0.99170000      -0.34630000       0.07000000
H        1.71200000      -1.17610000      -3.08550000
H        3.02760000      -0.66690000       1.04940000
H        2.48530000       0.79540000       1.96860000
H        2.17220000      -1.50750000       3.68400000
H        0.47020000       0.76680000       3.10240000
H       -0.55270000      -0.72470000       3.09190000
H        0.14430000      -2.59600000       1.92530000
H        1.71330000      -2.56830000       1.02490000
