21
Properties=species:S:1:pos:R:3 gdb_95557=T pbc="F F F"
C       -0.44050000       1.35830000      -0.02820000
C        0.05410000      -0.08300000       0.04060000
O        0.85030000      -0.30050000      -1.13510000
C        0.68310000      -1.55990000      -1.73550000
C        0.92420000      -2.75180000      -0.85690000
C        1.25650000      -2.78150000       0.44340000
C        1.37220000      -1.68320000       1.39430000
C        0.85210000      -0.44780000       1.28610000
C        1.04760000       0.57130000       2.37510000
H        0.40070000       2.05640000      -0.06300000
H       -1.02990000       1.49610000      -0.93800000
H       -1.06750000       1.60990000       0.83160000
H       -0.81700000      -0.75670000      -0.00410000
H       -0.31610000      -1.65410000      -2.20330000
H        1.40390000      -1.57820000      -2.56530000
H        0.85200000      -3.70070000      -1.38680000
H        1.46150000      -3.76290000       0.86770000
H        1.91490000      -1.92450000       2.30650000
H        1.65090000       0.16060000       3.18860000
H        1.55230000       1.47120000       2.00250000
H        0.09380000       0.90710000       2.80170000
