21
Properties=species:S:1:pos:R:3 gdb_76573=T pbc="F F F"
C       -0.07930000       0.91990000      -2.03530000
C       -0.04120000      -0.20360000      -1.02130000
C        1.22210000      -0.60790000      -0.25760000
C        2.56010000       0.07080000      -0.45470000
C        0.05980000       0.05120000       0.44790000
C        0.12850000       1.42370000       1.12860000
O       -0.52260000       1.22370000       2.38140000
C       -0.58940000      -0.17120000       2.56850000
O       -0.75590000      -0.73650000       1.29290000
H        0.55460000       1.76420000      -1.74950000
H        0.26010000       0.57350000      -3.01730000
H       -1.09910000       1.30240000      -2.15260000
H       -0.69070000      -1.04060000      -1.26560000
H        1.28880000      -1.67570000      -0.06470000
H        2.46540000       1.14880000      -0.61250000
H        3.20610000      -0.07510000       0.41820000
H        3.08340000      -0.33960000      -1.32530000
H        1.16360000       1.75860000       1.27840000
H       -0.41490000       2.20270000       0.58380000
H        0.33680000      -0.54510000       3.04410000
H       -1.45820000      -0.41170000       3.18710000
