18
Properties=species:S:1:pos:R:3 gdb_35255=T pbc="F F F"
N       -0.14320000      -1.16910000       0.27360000
C       -0.04070000      -0.01780000       0.23010000
C        0.02390000       1.41520000       0.14060000
C        0.67200000       2.24170000       1.24300000
C        1.33630000       2.15050000      -0.09550000
C        2.64660000       1.41640000      -0.25910000
C        3.93250000       2.19890000       0.10340000
C        4.16880000       1.05480000       1.10850000
O        2.89860000       0.44770000       0.78090000
H       -0.85060000       1.84680000      -0.33570000
H        0.16900000       3.15660000       1.53270000
H        1.13220000       1.67930000       2.04610000
H        1.24800000       3.00860000      -0.75750000
H        2.68410000       0.93930000      -1.24810000
H        4.66950000       2.30440000      -0.69330000
H        3.74640000       3.17320000       0.55930000
H        5.00510000       0.38740000       0.86930000
H        4.22730000       1.33520000       2.16600000
