24
Properties=species:S:1:pos:R:3 gdb_76680=T pbc="F F F"
C        0.12200000       1.57280000       0.81460000
C       -0.01960000       0.17380000       0.25070000
C        0.21780000      -0.16570000      -1.18840000
C        0.61820000       0.85570000      -2.23850000
C        1.32540000       0.22320000      -3.42320000
C        0.52870000      -0.39340000      -4.54600000
C        1.29520000       0.88730000      -4.77510000
N        1.11800000      -0.66400000      -0.14000000
C        2.47810000      -0.16430000      -0.01750000
H        0.84250000       2.19080000       0.27650000
H       -0.84500000       2.08640000       0.77850000
H        0.43280000       1.53540000       1.86470000
H       -0.79300000      -0.39980000       0.76370000
H       -0.39530000      -0.96240000      -1.61240000
H       -0.29300000       1.35560000      -2.59530000
H        1.24730000       1.64490000      -1.81560000
H        2.24990000      -0.28870000      -3.16880000
H        0.89590000      -1.30430000      -5.00550000
H       -0.55380000      -0.33080000      -4.49300000
H        0.72630000       1.80630000      -4.87480000
H        2.18730000       0.85140000      -5.39070000
H        2.63300000       0.89430000      -0.27080000
H        2.81260000      -0.30990000       1.01520000
H        3.13110000      -0.76100000      -0.66340000
