19
Properties=species:S:1:pos:R:3 gdb_72937=T pbc="F F F"
C       -0.18510000       1.50440000      -0.13870000
C        0.01930000       0.01570000       0.03010000
C       -1.22300000      -0.88610000       0.19290000
O       -0.66120000      -1.53720000       1.35660000
C        0.48580000      -0.67770000       1.34760000
C        1.74290000      -1.25220000       0.60720000
O        1.59660000      -2.57490000       0.07630000
C        1.20160000      -2.05930000      -1.21810000
C        1.25520000      -0.60290000      -0.71600000
H        0.75300000       2.05430000      -0.00520000
H       -0.56180000       1.73750000      -1.14220000
H       -0.90710000       1.89100000       0.58840000
H       -2.13310000      -0.32810000       0.45210000
H       -1.46210000      -1.59340000      -0.60860000
H        0.64940000      -0.16790000       2.30310000
H        2.71690000      -1.08120000       1.07590000
H        1.95800000      -2.28750000      -1.97970000
H        0.23710000      -2.45810000      -1.55040000
H        1.84720000       0.10250000      -1.29900000
