15
Properties=species:S:1:pos:R:3 gdb_19926=T pbc="F F F"
C       -0.06970000       1.41260000       0.08840000
O        1.38970000       1.45980000       0.04240000
C        1.44520000       0.20870000      -0.72770000
C        2.17010000      -1.05240000      -0.29690000
N        2.00710000      -1.46790000       1.10720000
C        1.08840000      -2.03220000       0.08200000
C       -0.20460000      -1.26620000       0.14190000
C        0.02340000      -0.03780000      -0.31950000
H       -0.46490000       1.62690000       1.08610000
H       -0.50960000       2.10010000      -0.64600000
H        1.65120000       0.43760000      -1.78190000
H        3.05240000      -1.38030000      -0.83520000
H        2.73450000      -2.15080000       1.31330000
H        1.15300000      -3.08830000      -0.15760000
H       -1.06030000      -1.60510000       0.71320000
