13
Properties=species:S:1:pos:R:3 gdb_24328=T pbc="F F F"
O       -0.03090000       1.33840000       0.00950000
C        1.22080000       1.83950000       0.00030000
C        2.12040000       0.80270000      -0.01390000
C        3.53100000       0.63420000      -0.02840000
N        4.06530000      -0.55630000      -0.03980000
C        3.20930000      -1.64310000      -0.03740000
N        1.90610000      -1.65430000      -0.02500000
C        1.33460000      -0.41290000      -0.01290000
C        0.02030000      -0.01820000       0.00170000
H        1.30260000       2.91330000       0.00530000
H        4.20540000       1.49000000      -0.03020000
H        3.71270000      -2.60650000      -0.04740000
H       -0.92280000      -0.53550000       0.00790000
