14
Properties=species:S:1:pos:R:3 gdb_25490=T pbc="F F F"
N       -0.17910000       1.30310000       0.01190000
C       -0.01620000       0.05520000       0.00280000
O       -1.13970000      -0.72870000       0.00820000
C       -1.03740000      -2.08060000       0.00080000
N        0.16550000      -2.64740000      -0.00940000
C        0.17790000      -3.98250000      -0.01610000
C       -0.98530000      -4.73820000      -0.01250000
C       -2.17850000      -4.02000000      -0.00150000
N       -2.22060000      -2.68980000       0.00520000
H        0.72910000       1.76470000       0.00600000
H        0.91080000      -0.51620000      -0.00930000
H        1.15880000      -4.45180000      -0.02450000
H       -0.96640000      -5.82010000      -0.01790000
H       -3.13990000      -4.52850000       0.00200000
