16
Properties=species:S:1:pos:R:3 gdb_97089=T pbc="F F F"
C        0.05250000       1.44050000       0.00170000
N        0.14060000      -0.00740000      -0.05700000
C        0.62430000      -0.64560000       0.92080000
O        1.10110000      -0.10100000       2.09380000
C        1.56680000      -1.14320000       2.95890000
C        1.32540000      -2.41380000       2.18790000
C        1.65770000      -3.74370000       2.70090000
O        2.15500000      -3.92850000       3.78990000
C        0.77640000      -2.09990000       1.00520000
H        0.60600000       1.86330000      -0.84490000
H       -0.99460000       1.73700000      -0.13150000
H        0.43100000       1.88270000       0.92920000
H        2.62710000      -0.98340000       3.18710000
H        1.01100000      -1.11090000       3.90330000
H        1.42110000      -4.58600000       2.01710000
H        0.47530000      -2.76380000       0.20750000
