25
Properties=species:S:1:pos:R:3 gdb_57384=T pbc="F F F"
C       -0.13410000       1.55600000       0.02650000
C        0.00980000       0.01950000       0.02910000
C        0.79350000      -0.38950000       1.28990000
C       -1.39070000      -0.62590000       0.07100000
C        0.71670000      -0.43770000      -1.24190000
C        1.59950000      -1.65470000      -1.34890000
C        2.17650000      -0.30790000      -1.70190000
C        1.73350000       0.08630000      -3.11160000
C        0.24320000      -0.08730000      -2.67080000
H        0.84650000       2.04180000      -0.01270000
H       -0.72010000       1.90960000      -0.82690000
H       -0.64280000       1.89590000       0.93510000
H        0.31450000       0.02690000       2.18220000
H        0.82830000      -1.47580000       1.41390000
H        1.82280000      -0.01510000       1.26260000
H       -1.98710000      -0.33840000      -0.80130000
H       -1.31850000      -1.71840000       0.08290000
H       -1.93880000      -0.31300000       0.96660000
H        1.95370000      -2.07660000      -0.41580000
H        1.42470000      -2.39410000      -2.12910000
H        3.03230000       0.09300000      -1.17030000
H        1.96710000       1.12320000      -3.36460000
H        2.08780000      -0.55780000      -3.92400000
H       -0.33140000      -0.86810000      -3.18020000
H       -0.31690000       0.84730000      -2.73560000
