16
Properties=species:S:1:pos:R:3 gdb_49134=T pbc="F F F"
O       -0.06450000      -0.01790000       0.18990000
C       -0.01400000       1.18700000       0.10410000
C        1.25270000       1.94990000       0.01510000
C        1.21700000       3.29280000      -0.05940000
C        2.45680000       4.10700000      -0.05600000
O        2.42950000       5.31800000      -0.12680000
C        3.75330000       3.30800000       0.09000000
N        3.69830000       1.96230000      -0.47710000
C        2.56100000       1.19140000       0.01540000
H       -0.93500000       1.80960000       0.08220000
H        0.27710000       3.84000000      -0.08500000
H        4.56980000       3.87800000      -0.36000000
H        3.97350000       3.22940000       1.16540000
H        3.63970000       2.02990000      -1.48840000
H        2.77130000       0.85480000       1.04200000
H        2.45110000       0.27710000      -0.57420000
