17
Properties=species:S:1:pos:R:3 gdb_20837=T pbc="F F F"
C        0.10260000       1.46230000      -0.06280000
C       -0.07780000      -0.05520000       0.09820000
C       -1.51400000      -0.47050000       0.06520000
N       -2.11830000      -1.04760000       1.09670000
N       -3.38130000      -1.23780000       0.63900000
C       -4.38670000      -1.85810000       1.47210000
C       -3.47500000      -0.77370000      -0.62240000
N       -2.31980000      -0.28090000      -1.02330000
H        1.16430000       1.72670000      -0.07620000
H       -0.35080000       1.80510000      -0.99660000
H       -0.37230000       2.00280000       0.76210000
H        0.45470000      -0.56920000      -0.71090000
H        0.35570000      -0.39770000       1.04200000
H       -5.32220000      -1.91310000       0.91220000
H       -4.07440000      -2.86680000       1.75450000
H       -4.54230000      -1.26890000       2.37950000
H       -4.38980000      -0.81900000      -1.19530000
