15
Properties=species:S:1:pos:R:3 gdb_8844=T pbc="F F F"
C        0.00380000       1.49290000       0.01750000
N       -0.01540000       0.03140000      -0.04480000
C       -0.03320000      -0.68670000       1.15920000
O       -0.03350000      -0.16180000       2.24400000
C       -0.01670000      -0.66490000      -1.24760000
O       -0.03290000      -1.88000000      -1.30910000
C        0.00360000       0.15140000      -2.53770000
O       -0.00040000      -0.69750000      -3.64240000
H        0.90390000       1.89610000      -0.45390000
H       -0.87880000       1.92000000      -0.46570000
H        0.00050000       1.76190000       1.07300000
H       -0.04660000      -1.76960000       0.98590000
H       -0.86970000       0.82360000      -2.54920000
H        0.89510000       0.79920000      -2.53680000
H       -0.01550000      -1.59620000      -3.27450000
