16
Properties=species:S:1:pos:R:3 gdb_52573=T pbc="F F F"
C       -0.07670000       1.44550000      -0.07800000
C       -0.00900000      -0.00600000      -0.06380000
C        0.03770000      -1.21030000      -0.05700000
C        0.04450000      -2.66100000      -0.07750000
O       -0.81840000      -3.32700000      -0.62040000
N        1.11940000      -3.21370000       0.57470000
C        1.28950000      -4.64370000       0.69460000
C        2.48050000      -5.15650000      -0.10320000
O        3.18360000      -6.06610000       0.24710000
H        0.85350000       1.87860000      -0.46120000
H       -0.89910000       1.79490000      -0.71050000
H       -0.23650000       1.83880000       0.93170000
H        1.77240000      -2.59270000       1.02480000
H        1.38970000      -4.96380000       1.73660000
H        0.38220000      -5.09680000       0.27550000
H        2.64710000      -4.61200000      -1.06070000
