17
Properties=species:S:1:pos:R:3 gdb_91177=T pbc="F F F"
O        0.16210000       1.37610000      -0.30950000
C        0.02750000      -0.00580000      -0.02550000
C        0.64370000      -0.44930000       1.33450000
C       -0.56550000      -0.53690000       2.28430000
N       -0.98310000       0.85890000       2.59720000
C       -1.92340000       1.13460000       1.78670000
N       -2.44090000       0.10380000       0.94310000
C       -1.42370000      -0.52970000       0.03460000
C       -1.68990000      -1.09170000       1.38040000
H       -0.00040000       1.86220000       0.50550000
H        0.52550000      -0.50960000      -0.85970000
H        1.10060000      -1.43960000       1.23250000
H        1.41320000       0.24800000       1.67640000
H       -0.37630000      -1.09650000       3.20090000
H       -2.39230000       2.11300000       1.72830000
H       -1.87000000      -0.92650000      -0.87100000
H       -2.24880000      -1.99690000       1.58950000
