16
Properties=species:S:1:pos:R:3 gdb_66394=T pbc="F F F"
C       -0.06170000       1.57260000       0.00690000
C        0.05870000       0.07700000      -0.01140000
C        0.63660000      -0.93360000      -1.03470000
C        1.20720000      -1.82770000       0.07560000
C        0.67380000      -0.77220000       1.07960000
O        0.87330000      -0.56500000       2.23990000
C       -0.85190000      -0.80530000      -0.87670000
C       -1.67410000      -1.86500000      -0.34790000
N       -2.33030000      -2.72120000       0.06910000
H        0.87330000       2.02980000       0.34440000
H       -0.29910000       1.96690000      -0.98570000
H       -0.85310000       1.88690000       0.69460000
H        1.11820000      -0.70690000      -1.97680000
H        0.81470000      -2.84480000       0.14610000
H        2.29970000      -1.85370000       0.10470000
H       -1.34550000      -0.23300000      -1.65740000
