18
Properties=species:S:1:pos:R:3 gdb_33937=T pbc="F F F"
C        0.07950000      -1.15840000       0.06750000
C        0.04890000       0.04280000       0.02500000
C       -0.03370000       1.47760000      -0.02320000
C        0.33930000       2.21680000      -1.27020000
N        1.23870000       2.26050000      -0.11900000
C        1.09990000       3.43990000       0.76890000
C       -0.24060000       3.36810000       1.50320000
C       -1.52330000       3.51130000       0.72490000
C       -0.95800000       2.13850000       0.98910000
H        0.12300000      -2.21870000       0.10160000
H        0.72170000       1.65520000      -2.11860000
H       -0.23040000       3.10070000      -1.54190000
H        1.91600000       3.39800000       1.49710000
H        1.22840000       4.36010000       0.18690000
H       -0.24810000       3.62020000       2.55820000
H       -2.41080000       3.78330000       1.28730000
H       -1.50490000       3.92670000      -0.27590000
H       -1.49250000       1.46920000       1.65090000
