20
Properties=species:S:1:pos:R:3 gdb_6413=T pbc="F F F"
C        0.03010000       1.53300000      -0.06970000
C        0.01300000       0.00900000       0.01770000
O        0.65290000      -0.56900000      -1.13370000
C        0.74640000      -0.52520000       1.24910000
C        0.71190000      -2.05270000       1.37110000
O        1.51840000      -2.68790000       0.38660000
C        1.25370000      -2.54630000       2.71180000
O        1.28240000      -3.95680000       2.75830000
H        1.05940000       1.90250000      -0.10660000
H       -0.48980000       1.87880000      -0.97050000
H       -0.47140000       1.97930000       0.79500000
H       -1.03170000      -0.33940000       0.05940000
H        0.14580000      -0.33400000      -1.91690000
H        1.79140000      -0.19280000       1.21920000
H        0.28320000      -0.07990000       2.13810000
H       -0.33380000      -2.39750000       1.28110000
H        1.32200000      -2.25600000      -0.45610000
H        2.25820000      -2.11680000       2.86670000
H        0.60990000      -2.20520000       3.52990000
H        1.66210000      -4.22950000       1.91350000
