18
Properties=species:S:1:pos:R:3 gdb_108133=T pbc="F F F"
O       -0.02680000       1.41830000       0.00950000
C        0.02910000       0.00040000       0.05550000
C       -1.34690000      -0.59020000       0.01320000
O       -2.17410000      -0.30850000       1.15020000
C       -3.06230000      -1.33190000       0.60790000
C       -3.63610000      -0.60260000      -0.61810000
C       -2.25690000      -0.52330000      -1.31170000
N       -1.87930000      -1.94750000      -1.54330000
C       -1.80650000      -2.05440000      -0.08520000
H       -0.58360000       1.69800000       0.74490000
H        0.59360000      -0.32800000      -0.82190000
H        0.55530000      -0.35400000       0.95500000
H       -3.71210000      -1.78960000       1.35110000
H       -4.36080000      -1.17340000      -1.20700000
H       -4.06560000       0.35850000      -0.32830000
H       -2.08790000       0.18640000      -2.11900000
H       -2.60900000      -2.50390000      -1.98830000
H       -1.34070000      -2.91740000       0.38910000
