19
Properties=species:S:1:pos:R:3 gdb_79645=T pbc="F F F"
C       -0.21170000       1.58820000      -0.05530000
C        0.10650000       0.09590000       0.03630000
C        1.35190000      -0.66730000      -0.31450000
C        2.70660000      -0.11860000       0.19550000
C        2.63890000       1.16300000       0.98360000
C        2.18760000      -0.12100000       1.62120000
C        0.81180000      -0.68440000       1.13950000
C        0.17800000      -1.74830000       1.83490000
C       -0.34430000      -2.64620000       2.44600000
H        0.44340000       2.10900000      -0.75890000
H       -1.23760000       1.71750000      -0.41250000
H       -0.14420000       2.08880000       0.91380000
H       -0.74630000      -0.50570000      -0.27410000
H        1.31730000      -1.49910000      -1.00730000
H        3.64450000      -0.51630000      -0.16850000
H        3.61030000       1.49340000       1.34260000
H        1.97420000       1.97770000       0.74200000
H        2.66070000      -0.52970000       2.50380000
H       -0.80930000      -3.43880000       2.97700000
