21
Properties=species:S:1:pos:R:3 gdb_122354=T pbc="F F F"
C        0.03180000       1.24090000       0.76170000
C       -0.04960000       0.02710000      -0.14880000
O       -1.34490000      -0.52480000      -0.04810000
C       -1.52540000      -1.66330000      -0.86540000
C       -2.93060000      -2.16290000      -0.64940000
C       -3.39470000      -3.48810000      -1.19840000
O       -2.41090000      -4.27080000      -1.83670000
C       -3.22030000      -3.32100000       0.29340000
O       -2.16700000      -4.01380000       0.88720000
H        1.02640000       1.69380000       0.70740000
H       -0.70830000       1.99080000       0.46790000
H       -0.16450000       0.95480000       1.79880000
H        0.16390000       0.31260000      -1.19380000
H        0.70750000      -0.72280000       0.13790000
H       -1.36640000      -1.40230000      -1.92550000
H       -0.79250000      -2.44150000      -0.60870000
H       -3.67290000      -1.37010000      -0.67480000
H       -4.38550000      -3.55220000      -1.64320000
H       -2.75190000      -5.16930000      -1.90780000
H       -4.08900000      -3.26520000       0.94200000
H       -1.71780000      -4.48340000       0.17050000
