16
Properties=species:S:1:pos:R:3 gdb_35070=T pbc="F F F"
C       -0.01460000      -1.21710000       0.12740000
C       -0.03280000      -0.01690000       0.06190000
C       -0.04090000       1.43790000      -0.01000000
C       -0.56760000       2.05750000       1.29440000
C        0.21020000       3.11030000       1.62630000
C        1.40980000       2.76210000       2.50870000
N        2.17500000       2.59810000       1.18390000
C        1.35540000       2.12400000      -0.04180000
C        1.18460000       3.47340000       0.50170000
H        0.00060000      -2.27770000       0.17640000
H       -0.55710000       1.74290000      -0.93320000
H       -0.97750000       1.39040000       2.04630000
H        1.91190000       3.57720000       3.03810000
H        1.33160000       1.87440000       3.14120000
H        2.04490000       1.89460000      -0.84840000
H        1.43100000       4.44000000       0.07810000
