21
Properties=species:S:1:pos:R:3 gdb_94892=T pbc="F F F"
C        0.17640000       1.59740000      -0.04630000
C       -0.00130000       0.08410000       0.07100000
O        0.61520000      -0.56050000      -1.06270000
C        1.51050000      -1.59760000      -0.64540000
C        1.52290000      -1.49550000       0.84640000
C        0.67120000      -0.55710000       1.24740000
C        0.56430000      -0.46080000       2.74220000
C        1.75830000      -1.35390000       3.20970000
C        2.17480000      -2.22770000       1.98300000
H        1.23750000       1.86160000      -0.01070000
H       -0.23920000       1.95250000      -0.99340000
H       -0.34200000       2.11050000       0.77080000
H       -1.08200000      -0.14320000       0.05820000
H        1.14760000      -2.57700000      -1.00030000
H        2.49610000      -1.43450000      -1.10770000
H        0.64170000       0.56240000       3.12740000
H       -0.40150000      -0.84850000       3.09620000
H        2.59700000      -0.71140000       3.49350000
H        1.50910000      -1.95770000       4.08590000
H        1.79470000      -3.25610000       2.06250000
H        3.26370000      -2.31180000       1.88840000
