13
Properties=species:S:1:pos:R:3 gdb_25045=T pbc="F F F"
N       -0.03240000       1.32970000       0.01010000
C       -0.05150000       0.06820000       0.00350000
O        1.19230000      -0.63910000      -0.00760000
C        1.21650000      -1.96860000      -0.01480000
C        0.08730000      -2.72170000      -0.01220000
C       -1.14910000      -1.96040000      -0.00080000
N       -1.21490000      -0.67400000       0.00640000
C        0.10410000      -4.13720000      -0.01980000
C        0.08260000      -5.34120000      -0.02610000
H        0.92570000       1.67660000       0.00630000
H        2.22320000      -2.37200000      -0.02290000
H       -2.09010000      -2.50930000       0.00180000
H        0.07060000      -6.40280000      -0.03160000
