20
Properties=species:S:1:pos:R:3 gdb_61556=T pbc="F F F"
C       -0.08350000       1.80640000       0.12340000
C       -0.02820000       0.27190000       0.11100000
C        0.64760000      -0.31470000       1.37270000
C        2.11610000       0.01600000       1.47000000
C        3.10690000      -0.96710000       1.92440000
O        2.97420000      -0.65400000       0.53670000
C       -1.45520000      -0.27980000       0.04390000
N       -1.69830000      -1.15630000      -0.97230000
O       -2.30710000       0.03080000       0.85590000
H        0.91500000       2.24230000       0.21300000
H       -0.53020000       2.18880000      -0.79960000
H       -0.69860000       2.14830000       0.96000000
H        0.54400000      -0.06680000      -0.76090000
H        0.12000000       0.05430000       2.25980000
H        0.54010000      -1.40560000       1.36400000
H        2.36450000       1.06900000       1.60780000
H        4.03070000      -0.63190000       2.39410000
H        2.77650000      -1.96440000       2.21270000
H       -0.99730000      -1.40930000      -1.64550000
H       -2.61760000      -1.56050000      -1.04840000
