23
Properties=species:S:1:pos:R:3 gdb_86316=T pbc="F F F"
C       -0.85130000       1.04210000      -1.08910000
C        0.14100000      -0.05940000      -0.74860000
C        1.62530000       0.09840000      -1.16420000
C        2.04010000      -0.61340000       0.14820000
C        3.30200000      -0.16940000       0.87210000
C        0.61150000      -0.29600000       0.73910000
C        0.55520000       0.93600000       1.61950000
C       -0.12730000       0.77630000       2.96620000
O        1.02820000       2.00080000       1.27550000
H       -0.50450000       2.01490000      -0.73230000
H       -0.98340000       1.10680000      -2.17500000
H       -1.83660000       0.84630000      -0.64960000
H       -0.24010000      -1.01890000      -1.11580000
H        1.94120000      -0.35010000      -2.11020000
H        1.92350000       1.15010000      -1.14600000
H        2.07880000      -1.69540000      -0.02080000
H        3.29480000       0.90670000       1.06170000
H        3.41870000      -0.68660000       1.83190000
H        4.18480000      -0.40070000       0.26540000
H        0.12690000      -1.13340000       1.24820000
H        0.37330000      -0.00330000       3.55260000
H       -0.11020000       1.71990000       3.51300000
H       -1.16330000       0.44510000       2.82700000
