18
Properties=species:S:1:pos:R:3 gdb_13794=T pbc="F F F"
C        1.48620000       1.03760000       0.30400000
C        0.30060000       0.06800000       0.22320000
C       -0.02200000      -0.30240000      -1.20440000
O        0.85480000      -1.19920000      -1.89220000
C       -0.48890000      -1.62860000      -1.66240000
C       -0.73650000      -2.79510000      -0.73330000
C        0.46700000      -3.53940000      -0.19870000
O       -1.87730000      -3.12560000      -0.50210000
H        2.38540000       0.58450000      -0.12380000
H        1.28100000       1.96080000      -0.24860000
H        1.70020000       1.30920000       1.34150000
H        0.50960000      -0.82910000       0.81260000
H       -0.59360000       0.52890000       0.66140000
H       -0.33600000       0.54280000      -1.82220000
H       -1.13290000      -1.65150000      -2.54230000
H        1.23120000      -2.86130000       0.18650000
H        0.14980000      -4.25040000       0.56500000
H        0.93640000      -4.08210000      -1.02890000
