17
Properties=species:S:1:pos:R:3 gdb_17572=T pbc="F F F"
C       -0.00550000       1.50550000       0.09640000
C        0.01760000       0.00870000      -0.01540000
C        0.90740000      -0.80990000      -1.00680000
C        0.72050000      -1.81360000       0.16290000
O        0.70900000      -0.68200000       1.06900000
C       -0.78580000      -2.16210000       0.03150000
N       -1.60580000      -1.57380000       1.11550000
C       -1.31750000      -0.79070000      -0.10780000
H        1.00880000       1.90980000       0.15280000
H       -0.50870000       1.94630000      -0.77060000
H       -0.54950000       1.80590000       0.99750000
H        0.50730000      -1.06310000      -1.99360000
H        1.92540000      -0.42090000      -1.06820000
H        1.43800000      -2.59090000       0.42240000
H       -1.13030000      -3.01850000      -0.53550000
H       -2.54890000      -1.95040000       1.02200000
H       -2.10720000      -0.49810000      -0.78980000
