19
Properties=species:S:1:pos:R:3 gdb_83676=T pbc="F F F"
O        0.54380000       0.95560000       0.64310000
C        0.03630000      -0.24310000       0.13430000
C       -1.49620000      -0.41930000      -0.02890000
C       -2.26070000       0.83650000      -0.52790000
C       -2.19780000       0.30080000      -1.99080000
C       -1.30040000      -0.86680000      -1.52250000
C        0.23660000      -0.55260000      -1.40880000
C        0.76560000       0.55320000      -2.17580000
C        1.20140000       1.53000000      -2.73120000
H        0.67620000       1.56180000      -0.09770000
H        0.45920000      -1.05450000       0.73550000
H       -1.99730000      -1.03230000       0.72100000
H       -3.27020000       0.93940000      -0.12520000
H       -1.72930000       1.77380000      -0.34520000
H       -3.16870000      -0.05190000      -2.34770000
H       -1.77150000       0.96530000      -2.74600000
H       -1.52560000      -1.86750000      -1.89140000
H        0.85560000      -1.43970000      -1.56890000
H        1.59700000       2.36120000      -3.26120000
