15
Properties=species:S:1:pos:R:3 gdb_49693=T pbc="F F F"
O       -0.04610000       0.02500000      -0.30620000
C       -0.02590000       1.18930000       0.01290000
C        1.22080000       1.99750000       0.05260000
C        1.23950000       3.48950000      -0.13730000
O        0.04500000       4.09620000       0.33770000
C        0.36510000       3.70750000       1.70100000
C        1.60450000       2.93820000       1.22820000
C        2.83560000       2.81650000       1.92110000
C        3.86900000       2.71460000       2.52910000
H       -0.95520000       1.73040000       0.27980000
H        2.09250000       1.48220000      -0.33860000
H        1.81920000       4.00520000      -0.89390000
H        0.63360000       4.58610000       2.29460000
H       -0.44120000       3.15170000       2.18810000
H        4.78340000       2.62390000       3.06150000
