18
Properties=species:S:1:pos:R:3 gdb_82949=T pbc="F F F"
O        0.27180000       1.32060000      -0.13740000
C        0.00810000      -0.03370000      -0.02720000
C       -0.48760000      -0.73340000       1.23070000
C       -1.15930000       0.07790000       2.34470000
C       -2.46730000       0.61220000       1.75920000
N       -2.28940000       1.59760000       0.66940000
C       -2.57610000       0.17240000       0.34590000
C       -1.36470000      -0.67070000      -0.01750000
O       -1.62600000      -1.82760000      -0.75750000
H       -0.55040000       1.77920000       0.12690000
H        0.74840000      -0.61780000      -0.57070000
H        0.00450000      -1.66230000       1.49890000
H       -1.38120000      -0.57330000       3.19560000
H       -0.52450000       0.89340000       2.70930000
H       -3.33470000       0.72870000       2.40060000
H       -3.12790000       2.16080000       0.55990000
H       -3.51820000      -0.07990000      -0.12720000
H       -1.52690000      -1.61180000      -1.69120000
