15
Properties=species:S:1:pos:R:3 gdb_34737=T pbc="F F F"
N        0.62290000      -1.05530000      -0.03560000
C        0.34560000       0.06700000      -0.05640000
C       -0.00730000       1.47910000      -0.06780000
C       -0.25630000       2.26950000       1.30220000
C        0.38180000       3.47990000       0.74840000
N        0.87200000       2.99030000       2.01730000
C        2.30130000       2.64030000       1.76300000
C        2.29120000       2.16180000       0.31720000
C        1.11260000       2.52740000      -0.22700000
H       -0.90050000       1.62880000      -0.68470000
H       -1.16920000       2.17140000       1.87830000
H        0.00810000       4.48280000       0.58330000
H        2.89540000       3.52730000       2.01400000
H        2.63990000       1.81710000       2.40130000
H        2.81280000       1.25280000       0.03530000
