18
Properties=species:S:1:pos:R:3 gdb_84940=T pbc="F F F"
C        1.09890000       0.98290000      -0.08240000
N        0.02620000      -0.01640000       0.01380000
C       -0.79440000      -0.16130000      -1.11760000
N       -1.74760000      -0.93480000      -1.43060000
C       -2.24450000      -1.99640000      -0.58820000
C       -1.28510000      -2.47980000       0.48260000
O       -1.10270000      -1.47950000       1.49130000
C       -0.20290000      -0.48670000       1.31220000
N        0.41540000       0.04690000       2.28720000
H        2.01230000       0.58380000       0.36010000
H        1.27450000       1.21050000      -1.13420000
H        0.83800000       1.89590000       0.45920000
H       -0.49790000       0.56430000      -1.87570000
H       -3.17650000      -1.67180000      -0.10560000
H       -2.51400000      -2.84180000      -1.23540000
H       -1.69440000      -3.34530000       1.01100000
H       -0.31770000      -2.76290000       0.05120000
H        0.17340000      -0.44480000       3.14510000
