20
Properties=species:S:1:pos:R:3 gdb_82183=T pbc="F F F"
C       -0.05970000       1.55070000      -0.05570000
C        0.04070000       0.02860000       0.00760000
C        0.68770000      -0.62290000      -1.21140000
O        2.06130000      -0.26030000      -1.41050000
C        1.77010000      -1.49610000      -0.74090000
C        1.81310000      -1.42640000       0.77500000
C        1.96010000      -2.72330000       1.53150000
C        2.20140000      -0.10200000       1.33090000
N        0.77690000      -0.46040000       1.20400000
H        0.91830000       2.00170000      -0.24140000
H       -0.73190000       1.85760000      -0.86320000
H       -0.45320000       1.94380000       0.88560000
H       -0.97230000      -0.38820000       0.09330000
H        0.11280000      -0.79830000      -2.11940000
H        2.09140000      -2.39780000      -1.25550000
H        2.95780000      -3.15220000       1.38490000
H        1.80990000      -2.55630000       2.60060000
H        1.22250000      -3.46360000       1.20030000
H        2.54520000      -0.03250000       2.36050000
H        2.63740000       0.61450000       0.64450000
