19
Properties=species:S:1:pos:R:3 gdb_41377=T pbc="F F F"
C       -0.02490000       1.59120000      -0.17210000
C        1.48460000       1.67440000       0.26620000
C        1.47280000       0.14020000       0.47480000
C        0.87650000      -0.41740000       1.79010000
O       -0.44430000      -0.51830000       1.17670000
C        0.05640000       0.03940000      -0.06130000
C        0.13360000      -0.91300000      -1.24140000
C        1.49440000      -1.61910000      -0.97010000
O        2.32990000      -0.66520000      -0.28490000
H       -0.73130000       2.01980000       0.54060000
H       -0.24120000       1.98350000      -1.16810000
H        2.15600000       1.95700000      -0.54660000
H        1.70590000       2.28740000       1.14250000
H        1.26400000      -1.39750000       2.09090000
H        0.87800000       0.25870000       2.65320000
H       -0.69860000      -1.61970000      -1.27940000
H        0.16750000      -0.36040000      -2.18500000
H        1.34160000      -2.50730000      -0.34130000
H        2.02090000      -1.92590000      -1.87700000
