18
Properties=species:S:1:pos:R:3 gdb_54356=T pbc="F F F"
C        0.06780000       1.45760000      -0.42400000
C        0.08590000       0.02250000       0.06070000
O        1.08790000      -0.50010000       0.49050000
C       -1.25920000      -0.72560000       0.03960000
C       -1.16680000      -2.16280000       0.63830000
C       -1.73490000      -1.55830000       1.94420000
N       -2.13530000      -0.34500000       1.18450000
C       -1.98060000      -0.65980000      -1.29300000
O       -1.45230000      -0.45460000      -2.35610000
H        0.95960000       1.97830000      -0.07380000
H        0.05610000       1.44370000      -1.51890000
H       -0.83470000       1.98960000      -0.10470000
H       -1.84010000      -2.87380000       0.15600000
H       -0.15300000      -2.55610000       0.67200000
H       -2.57790000      -2.07710000       2.40990000
H       -0.95940000      -1.38600000       2.69900000
H       -1.92230000       0.54640000       1.62180000
H       -3.07230000      -0.85390000      -1.19730000
