23
Properties=species:S:1:pos:R:3 gdb_76643=T pbc="F F F"
C       -0.10040000       1.59710000      -0.23990000
C       -0.00010000       0.09440000      -0.08290000
C        1.31720000      -0.61770000      -0.22030000
O        2.43880000       0.18850000      -0.45640000
C        0.63500000      -0.56960000       1.13440000
C        1.22270000       0.21270000       2.27700000
C        0.30360000       0.63650000       3.46170000
C        1.47350000       0.32410000       4.43260000
C        2.11860000      -0.53460000       3.31250000
H        0.83100000       2.09540000       0.03260000
H       -0.31420000       1.85680000      -1.28230000
H       -0.90730000       2.00640000       0.37720000
H       -0.84960000      -0.44500000      -0.49460000
H        1.33140000      -1.56880000      -0.75310000
H        3.18340000      -0.19300000       0.02010000
H        0.16400000      -1.50040000       1.44740000
H        1.76180000       1.08570000       1.90060000
H       -0.10470000       1.65030000       3.45280000
H       -0.52370000      -0.06940000       3.58980000
H        2.06760000       1.21660000       4.64990000
H        1.23390000      -0.16940000       5.37740000
H        1.82890000      -1.58760000       3.39660000
H        3.20380000      -0.48420000       3.18450000
