20
Properties=species:S:1:pos:R:3 gdb_7829=T pbc="F F F"
C       -0.01580000       1.54260000       0.00620000
C        0.02030000       0.01220000       0.01300000
C        0.72550000      -0.53480000      -1.23420000
O        0.78450000      -1.95210000      -1.24360000
C        1.49690000      -2.46090000      -0.13260000
C        0.83480000      -2.06480000       1.19520000
O        1.61070000      -2.49400000       2.30540000
C        0.71040000      -0.54580000       1.26860000
H        0.99740000       1.96130000       0.01050000
H       -0.53240000       1.92670000      -0.88000000
H       -0.53610000       1.92700000       0.88920000
H       -1.01140000      -0.36500000      -0.01080000
H        0.19000000      -0.24850000      -2.14470000
H        1.74540000      -0.11350000      -1.29460000
H        1.51990000      -3.55020000      -0.25080000
H        2.53820000      -2.09520000      -0.12560000
H       -0.17290000      -2.51010000       1.22510000
H        1.61800000      -3.45660000       2.31290000
H        1.72230000      -0.12550000       1.35410000
H        0.16930000      -0.25840000       2.17670000
