21
Properties=species:S:1:pos:R:3 gdb_101435=T pbc="F F F"
C       -0.27030000       1.53650000      -0.04480000
C        0.07130000       0.05960000      -0.01970000
O        1.26340000      -0.24340000      -0.78950000
C        1.91170000      -0.85060000       0.34030000
C        0.69650000      -0.57990000       1.25610000
C        0.92600000       0.28070000       2.48760000
O       -0.31000000       0.72190000       3.06930000
C        1.75010000      -0.42940000       3.56640000
O        1.89250000       0.38520000       4.70770000
H        0.57800000       2.14740000       0.27600000
H       -0.53200000       1.83410000      -1.06490000
H       -1.11740000       1.74650000       0.61390000
H       -0.78040000      -0.52090000      -0.40060000
H        2.15040000      -1.90670000       0.16570000
H        2.83520000      -0.32330000       0.61610000
H        0.17780000      -1.49780000       1.55680000
H        1.44460000       1.20750000       2.21920000
H       -0.85570000      -0.05910000       3.22320000
H        1.26210000      -1.39170000       3.81270000
H        2.75540000      -0.65990000       3.19670000
H        1.02940000       0.80150000       4.83300000
