15
Properties=species:S:1:pos:R:3 gdb_127183=T pbc="F F F"
C        0.03630000       1.44990000      -0.01410000
N       -0.00240000      -0.00630000      -0.01100000
C       -0.04740000      -0.68500000       1.19230000
O       -0.05750000      -0.14280000       2.27430000
C        0.00740000      -0.67360000      -1.23190000
N       -0.02590000      -2.00420000      -1.34020000
N       -0.00100000      -2.19160000      -2.65850000
N        0.04500000      -1.11270000      -3.41360000
C        0.05170000      -0.11520000      -2.52710000
H        0.94880000       1.81300000      -0.49860000
H       -0.83250000       1.86030000      -0.53950000
H        0.02100000       1.77390000       1.02530000
H       -0.07320000      -1.77520000       1.05060000
H       -0.01690000      -3.11770000      -3.05340000
H        0.08650000       0.91270000      -2.84490000
