16
Properties=species:S:1:pos:R:3 gdb_39157=T pbc="F F F"
C        0.03270000       1.56720000       0.08080000
O        1.43230000       1.98770000       0.15650000
C        2.05930000       0.85010000       0.55760000
N        2.69430000       0.67010000       1.63740000
C        2.56490000      -0.77730000       1.93580000
C        1.40350000      -1.26410000       1.03800000
O        0.09640000      -0.65890000       1.34980000
C        0.03040000       0.01680000       0.05180000
C        1.48460000      -0.35530000      -0.17640000
H       -0.49620000       1.95120000       0.95850000
H       -0.39520000       1.99060000      -0.83190000
H        3.48120000      -1.34640000       1.72790000
H        2.34200000      -0.88260000       3.00230000
H        1.31550000      -2.34710000       0.92360000
H       -0.76670000      -0.39950000      -0.56960000
H        1.92210000      -0.60720000      -1.14050000
