18
Properties=species:S:1:pos:R:3 gdb_124698=T pbc="F F F"
C       -0.23340000       1.49690000       0.00250000
C        0.05990000      -0.01010000      -0.03380000
C        0.86190000      -0.39610000      -1.29640000
O        0.20440000      -0.02850000      -2.49610000
C        0.78140000      -0.48170000       1.19630000
N        0.29870000      -1.48170000       1.89830000
O        1.19710000      -1.68900000       2.94310000
C        2.19550000      -0.80340000       2.83340000
C        2.00730000      -0.00420000       1.75480000
H        0.69060000       2.07660000       0.10550000
H       -0.71390000       1.80040000      -0.93020000
H       -0.88820000       1.75280000       0.83990000
H       -0.88990000      -0.55920000      -0.06640000
H        1.81850000       0.13880000      -1.30600000
H        1.08670000      -1.47220000      -1.27180000
H       -0.57960000      -0.58030000      -2.58450000
H        2.96140000      -0.86110000       3.59160000
H        2.63400000       0.80070000       1.40950000
