19
Properties=species:S:1:pos:R:3 gdb_58380=T pbc="F F F"
C        0.09790000       1.42450000      -0.06200000
C       -0.06780000      -0.09420000       0.08300000
C        0.67960000      -0.65750000       1.29910000
N       -1.49150000      -0.49440000       0.07600000
C       -1.98830000      -1.36020000      -0.97990000
C       -1.33410000      -2.67660000      -0.98470000
N       -0.79400000      -3.69790000      -0.99350000
C       -2.37580000      -0.09260000       1.03700000
O       -3.55130000      -0.39350000       1.07560000
H        1.15650000       1.67600000      -0.17650000
H       -0.44040000       1.79650000      -0.93850000
H       -0.27560000       1.95690000       0.81810000
H        0.35850000      -0.56260000      -0.80970000
H        1.74770000      -0.43360000       1.21870000
H        0.31710000      -0.21680000       2.23300000
H        0.55920000      -1.74210000       1.35870000
H       -3.06170000      -1.48320000      -0.80840000
H       -1.84850000      -0.90060000      -1.96650000
H       -1.90330000       0.55730000       1.79330000
