14
Properties=species:S:1:pos:R:3 gdb_15978=T pbc="F F F"
O       -0.37270000       0.17950000      -0.25760000
C       -0.03590000       1.26700000       0.12410000
C        1.32280000       1.88850000      -0.11470000
O        2.26480000       1.02940000      -0.76430000
C        2.41490000       1.91420000      -1.89820000
C        1.39640000       2.87730000      -1.29730000
C        0.41270000       3.77790000      -1.89280000
O        1.56510000       4.26290000      -1.17690000
H       -0.72850000       1.93800000       0.68620000
H        1.70380000       2.31460000       0.82590000
H        3.42820000       2.32460000      -1.97730000
H        2.13160000       1.42860000      -2.83860000
H        0.42490000       3.95180000      -2.96730000
H       -0.54420000       3.94840000      -1.40270000
