18
Properties=species:S:1:pos:R:3 gdb_110186=T pbc="F F F"
C        0.04800000       1.58520000       0.28790000
C        0.00900000       0.06240000       0.13990000
C       -1.39430000      -0.49370000      -0.09860000
N       -1.99520000      -0.26390000      -1.43620000
C       -2.11370000      -1.68460000      -1.80360000
C       -1.46320000      -2.00170000      -0.44450000
O       -1.11260000      -2.99360000       0.11510000
C       -2.83110000       0.72140000      -1.86180000
O       -3.56800000       0.62060000      -2.81850000
H        1.06900000       1.93030000       0.47480000
H       -0.30750000       2.08130000      -0.62090000
H       -0.57720000       1.92040000       1.12250000
H        0.65900000      -0.25150000      -0.68530000
H        0.39430000      -0.41930000       1.04640000
H       -2.06600000      -0.21570000       0.72590000
H       -3.14870000      -2.02560000      -1.92040000
H       -1.53770000      -1.98720000      -2.68430000
H       -2.74930000       1.63830000      -1.24530000
