17
Properties=species:S:1:pos:R:3 gdb_48034=T pbc="F F F"
O       -0.09290000      -0.03750000      -0.23160000
C       -0.00420000       1.16700000      -0.15560000
C        1.23620000       1.89390000      -0.08860000
C        2.25810000       2.53570000      -0.03680000
C        3.48600000       3.31190000       0.03310000
C        3.24410000       4.81540000       0.19680000
C        4.47140000       5.74460000       0.07690000
C        3.67750000       6.39610000      -1.07350000
O        2.63270000       5.40350000      -0.96880000
H       -0.90650000       1.81160000      -0.13180000
H        4.09480000       2.95660000       0.87610000
H        4.07600000       3.14220000      -0.87660000
H        2.63230000       4.99090000       1.09190000
H        4.68420000       6.37480000       0.94090000
H        5.38760000       5.23700000      -0.23310000
H        3.30140000       7.40480000      -0.86280000
H        4.14850000       6.39190000      -2.06260000
