16
Properties=species:S:1:pos:R:3 gdb_44803=T pbc="F F F"
O       -0.05680000       0.15720000       1.29420000
C       -0.04150000       1.19450000       0.70040000
C       -1.14320000       2.09340000       0.06550000
C        0.00300000       2.85390000      -0.61850000
N        0.79460000       3.43180000       0.47330000
C        1.05830000       2.00920000       0.04360000
C        2.41260000       1.59600000      -0.39750000
C        2.68160000       1.16950000      -1.77810000
O        3.03630000       2.48280000      -1.33230000
H       -1.77020000       1.50300000      -0.60860000
H       -1.76350000       2.68030000       0.74540000
H        0.02590000       3.26300000      -1.61970000
H        1.55410000       3.96400000       0.04190000
H        3.07150000       1.23330000       0.39150000
H        3.52050000       0.50680000      -1.98220000
H        1.86060000       1.12610000      -2.49090000
