17
Properties=species:S:1:pos:R:3 gdb_30947=T pbc="F F F"
C       -0.37870000       1.54950000      -0.06650000
C        0.03740000       0.07250000       0.04900000
C        0.77970000      -0.43600000      -1.13880000
C        2.03830000      -0.88690000      -1.25490000
N        3.04160000      -1.02900000      -0.30280000
O        2.28310000      -1.25000000      -2.58770000
C        1.14070000      -1.01780000      -3.32250000
O        1.02320000      -1.22850000      -4.49970000
N        0.22590000      -0.51530000      -2.42370000
H        0.49770000       2.19270000      -0.18680000
H       -1.03650000       1.71940000      -0.92540000
H       -0.91720000       1.86710000       0.83100000
H        0.68590000      -0.06860000       0.91790000
H       -0.85630000      -0.54420000       0.21650000
H        3.86050000      -0.46920000      -0.52270000
H        3.34620000      -1.99370000      -0.20880000
H       -0.70900000      -0.26850000      -2.69650000
