21
Properties=species:S:1:pos:R:3 gdb_117928=T pbc="F F F"
C        0.18820000       1.84070000       0.01380000
C        0.00690000       0.31820000       0.10640000
C        0.59800000      -0.44100000      -1.10510000
C       -0.11600000      -0.15690000      -2.42280000
O        0.44630000      -1.02260000      -3.39580000
C        0.68530000      -0.21820000       1.35840000
O        1.79410000       0.13320000       1.70540000
C       -0.05610000      -1.25080000       2.19350000
O        0.72520000      -1.71550000       3.25060000
H        1.25120000       2.09120000      -0.02580000
H       -0.30280000       2.24600000      -0.87420000
H       -0.24020000       2.34020000       0.88820000
H       -1.06290000       0.07700000       0.17260000
H        1.66000000      -0.19250000      -1.20490000
H        0.54280000      -1.52250000      -0.93190000
H       -1.19800000      -0.33660000      -2.30430000
H        0.01130000       0.89710000      -2.71050000
H        0.05530000      -0.81320000      -4.24910000
H       -0.98720000      -0.77580000       2.55210000
H       -0.37270000      -2.07570000       1.53370000
H        1.54670000      -1.19990000       3.19670000
