18
Properties=species:S:1:pos:R:3 gdb_63501=T pbc="F F F"
C       -0.06120000       1.54400000       0.05530000
C       -0.03440000       0.02570000       0.03360000
C       -1.34420000      -0.59760000      -0.40650000
N        1.22080000      -0.57790000      -0.39080000
C        0.82620000      -0.74650000       1.04050000
C        1.70690000       0.02090000       1.99360000
O        1.75190000      -0.16920000       3.17930000
C        0.37580000      -2.02620000       1.51370000
C        0.03800000      -3.10840000       1.91450000
H        0.92620000       1.97070000       0.23210000
H       -0.41450000       1.91490000      -0.91310000
H       -0.74820000       1.90990000       0.82490000
H       -1.56190000      -0.29800000      -1.43800000
H       -1.31660000      -1.68730000      -0.35410000
H       -2.17010000      -0.24950000       0.22210000
H        1.05770000      -1.45640000      -0.87860000
H        2.33090000       0.78700000       1.48940000
H       -0.26300000      -4.05920000       2.27980000
