18
Properties=species:S:1:pos:R:3 gdb_10191=T pbc="F F F"
C       -0.06420000       1.48220000      -0.16380000
C        0.00080000      -0.03260000      -0.07510000
O        0.64680000      -0.51630000      -1.24620000
C        0.75110000      -1.94230000      -1.32000000
C       -0.49350000      -2.48820000      -2.04810000
O       -0.66880000      -1.85690000      -3.29260000
C        1.99090000      -2.27910000      -2.01660000
C        3.00440000      -2.59200000      -2.57950000
H        0.94070000       1.90290000      -0.25610000
H       -0.64840000       1.79400000      -1.03430000
H       -0.53490000       1.89380000       0.73390000
H        0.56940000      -0.34530000       0.81460000
H       -1.01120000      -0.45540000       0.01830000
H        0.78650000      -2.36650000      -0.30440000
H       -0.38060000      -3.56180000      -2.22700000
H       -1.36810000      -2.34590000      -1.39110000
H       -0.48990000      -0.92040000      -3.13760000
H        3.90050000      -2.86020000      -3.08250000
