17
Properties=species:S:1:pos:R:3 gdb_68800=T pbc="F F F"
C       -0.03600000       1.50020000       0.01480000
C        0.05580000       0.01290000       0.06550000
C        1.19960000      -0.85490000      -0.37530000
C        0.66260000      -1.00680000       1.03210000
N        1.43600000      -0.98070000       2.21370000
C       -0.70810000      -1.69960000       0.93540000
O       -1.17180000      -0.73470000      -0.04040000
C       -0.75220000      -3.08180000       0.45440000
N       -0.75910000      -4.17520000       0.07970000
H        0.93730000       1.94830000       0.23600000
H       -0.34150000       1.83720000      -0.98200000
H       -0.76780000       1.87240000       0.73850000
H        1.05110000      -1.63110000      -1.12140000
H        2.16240000      -0.35310000      -0.41810000
H        2.43130000      -0.98130000       2.04020000
H        1.20000000      -0.22430000       2.84400000
H       -1.28420000      -1.61530000       1.86410000
