21
Properties=species:S:1:pos:R:3 gdb_126139=T pbc="F F F"
C       -0.00110000       1.57120000       0.15790000
C       -0.06110000       0.04100000       0.14520000
C       -1.47220000      -0.54230000      -0.11010000
C       -2.01830000      -0.18630000      -1.50650000
C       -1.49420000      -2.02670000       0.12710000
C       -2.12750000      -2.79290000       1.08800000
C       -1.76110000      -4.12490000       0.79910000
N       -0.96040000      -4.20080000      -0.25870000
N       -0.81400000      -2.91600000      -0.64620000
H        1.00510000       1.91620000       0.41490000
H       -0.25640000       2.00360000      -0.81420000
H       -0.69290000       1.98630000       0.89950000
H        0.63220000      -0.34750000      -0.61340000
H        0.29730000      -0.34340000       1.10670000
H       -2.14800000      -0.10690000       0.63640000
H       -2.10570000       0.89590000      -1.63480000
H       -1.35990000      -0.56060000      -2.29920000
H       -3.00740000      -0.62630000      -1.66020000
H       -2.76310000      -2.43170000       1.88060000
H       -2.04820000      -5.02860000       1.31670000
H       -0.23930000      -2.71820000      -1.44740000
