16
Properties=species:S:1:pos:R:3 gdb_45093=T pbc="F F F"
O        0.04630000      -0.03700000       0.03750000
C        0.00310000       1.17070000       0.00320000
C       -1.29310000       1.97390000       0.02240000
C       -1.34090000       3.01100000      -1.10160000
N       -1.06020000       4.41100000      -0.74710000
C       -0.07390000       3.65570000      -1.53730000
C        1.20690000       3.26750000      -0.84710000
O        1.20710000       3.26770000       0.56580000
C        1.26090000       1.99080000      -0.08450000
H       -2.12400000       1.26930000      -0.04380000
H       -1.34980000       2.49950000       0.98160000
H       -2.08790000       2.82720000      -1.86930000
H       -1.58060000       5.03970000      -1.35350000
H        0.04580000       3.89930000      -2.59020000
H        2.13130000       3.62470000      -1.30070000
H        2.19270000       1.43790000       0.00850000
