20
Properties=species:S:1:pos:R:3 gdb_82903=T pbc="F F F"
C       -0.28750000       1.46220000       0.03230000
N        0.08220000       0.06170000      -0.01410000
C        0.97510000      -0.41390000      -1.08630000
C        2.29550000       0.32100000      -0.75290000
C        2.41310000      -0.44340000       0.57380000
O        2.63220000      -1.75330000       0.02040000
C        1.31690000      -1.90200000      -0.54170000
C        0.53240000      -1.99430000       0.78070000
C        0.86720000      -0.52200000       1.09230000
H        0.53610000       2.17870000       0.19060000
H       -0.78480000       1.73120000      -0.90570000
H       -1.00970000       1.61060000       0.84240000
H        0.55790000      -0.33430000      -2.08980000
H        3.14620000       0.08520000      -1.39330000
H        2.16590000       1.40240000      -0.69860000
H        3.18820000      -0.18740000       1.29330000
H        1.28910000      -2.72000000      -1.25860000
H       -0.54510000      -2.13660000       0.71200000
H        0.99480000      -2.74540000       1.42270000
H        0.64580000      -0.11270000       2.07650000
