20
Properties=species:S:1:pos:R:3 gdb_14192=T pbc="F F F"
C       -0.03180000       1.49810000       0.07360000
C        0.03160000      -0.01060000       0.03500000
C        0.91010000      -0.77960000      -0.99600000
C        0.82560000      -1.91630000       0.03000000
C       -0.69460000      -2.13820000       0.45220000
C       -0.29910000      -1.73970000       1.89950000
C        0.74300000      -0.86960000       1.18400000
C       -1.28740000      -0.81360000      -0.07020000
H        0.96790000       1.93940000       0.15050000
H       -0.50170000       1.89790000      -0.83320000
H       -0.61830000       1.84860000       0.93080000
H        0.51350000      -0.91740000      -2.00830000
H        1.92860000      -0.38110000      -1.05140000
H        1.49020000      -2.77950000       0.05000000
H       -1.22610000      -3.06510000       0.23660000
H       -1.06410000      -1.27500000       2.53140000
H        0.18310000      -2.55640000       2.44590000
H        1.61950000      -0.43210000       1.66330000
H       -2.08920000      -0.43460000       0.57220000
H       -1.66090000      -0.85930000      -1.09800000
