21
Properties=species:S:1:pos:R:3 gdb_83639=T pbc="F F F"
C       -0.60900000       1.37820000       0.09780000
C       -0.05220000      -0.03080000      -0.04990000
C        0.76600000      -0.41180000      -1.32050000
C        1.78210000       0.62200000      -1.83410000
O        2.78920000       0.18020000      -0.89100000
C        1.93810000      -0.88230000      -0.41640000
C        1.12830000      -0.51920000       0.86690000
C        1.78140000       0.46360000       1.82330000
O        0.67300000      -1.68640000       1.54120000
H        0.16530000       2.14760000       0.02160000
H       -1.35490000       1.58130000      -0.67870000
H       -1.10160000       1.50210000       1.06770000
H       -0.86150000      -0.75450000       0.07920000
H        0.26990000      -1.03310000      -2.06450000
H        2.11050000       0.44980000      -2.86700000
H        1.53620000       1.68390000      -1.71560000
H        2.41960000      -1.86490000      -0.44010000
H        2.17520000       1.33290000       1.29370000
H        1.06600000       0.79370000       2.58250000
H        2.62740000      -0.01180000       2.33620000
H        1.41210000      -2.03900000       2.05030000
