18
Properties=species:S:1:pos:R:3 gdb_15163=T pbc="F F F"
O       -0.05210000       1.41600000       0.15130000
C       -0.05300000      -0.00790000       0.17110000
C       -1.41370000      -0.50120000       0.00170000
C       -2.53250000      -0.92340000      -0.13500000
C       -3.88300000      -1.45370000      -0.30560000
C       -3.95090000      -2.96790000      -0.16170000
C       -4.08850000      -3.59310000       1.20020000
C       -5.24800000      -3.62420000       0.23260000
H        0.86000000       1.70200000       0.26520000
H        0.58210000      -0.41530000      -0.63290000
H        0.35480000      -0.39090000       1.12120000
H       -4.55360000      -0.99280000       0.43210000
H       -4.27040000      -1.16000000      -1.29060000
H       -3.33380000      -3.50420000      -0.87650000
H       -3.55830000      -4.51720000       1.40130000
H       -4.16000000      -2.92880000       2.05520000
H       -6.09890000      -2.98320000       0.44070000
H       -5.51030000      -4.56850000      -0.23160000
