17
Properties=species:S:1:pos:R:3 gdb_65410=T pbc="F F F"
C        0.27030000       0.97450000      -1.83250000
C        0.28080000      -0.32450000      -1.03870000
C        1.28120000      -1.39230000      -1.38620000
N        1.39220000      -0.67650000      -0.12540000
C        2.49630000       0.25930000       0.04590000
C        3.65380000      -0.43240000       0.62530000
N        4.57900000      -0.96620000       1.06420000
C       -1.02030000      -0.71310000      -0.54360000
C       -2.12120000      -1.00960000      -0.16400000
H        1.24290000       1.19850000      -2.27570000
H       -0.45500000       0.89380000      -2.64650000
H       -0.03290000       1.81500000      -1.20060000
H        1.01530000      -2.44180000      -1.31000000
H        1.98560000      -1.15010000      -2.18190000
H        2.83460000       0.74940000      -0.88030000
H        2.18340000       1.05030000       0.73670000
H       -3.08610000      -1.28360000       0.18520000
