18
Properties=species:S:1:pos:R:3 gdb_85261=T pbc="F F F"
C        0.57710000       1.47170000      -0.15050000
C       -0.10350000       0.11590000       0.06050000
C        0.11840000      -0.87590000      -1.11610000
C        1.25170000      -1.76420000      -0.64190000
C        1.80190000      -2.93700000      -1.32030000
O        2.52350000      -1.70360000      -1.29970000
C        1.31370000      -1.63850000       0.87310000
O        1.98540000      -2.29950000       1.63330000
N        0.45930000      -0.62010000       1.19190000
H        1.63960000       1.33930000      -0.37840000
H        0.10820000       2.01020000      -0.98050000
H        0.49460000       2.09640000       0.74510000
H       -1.17480000       0.27370000       0.22710000
H       -0.78540000      -1.47090000      -1.27870000
H        0.36790000      -0.36590000      -2.04840000
H        2.23100000      -3.73230000      -0.71400000
H        1.39850000      -3.22860000      -2.28940000
H        0.42070000      -0.27240000       2.13780000
