16
Properties=species:S:1:pos:R:3 gdb_49003=T pbc="F F F"
O       -0.74170000       1.35370000       0.78270000
C        0.12270000       1.01070000       0.01490000
C        1.44160000       1.71620000      -0.14370000
C        1.86830000       2.67150000       1.00780000
C        2.06290000       3.79410000      -0.02330000
O        2.41820000       4.93340000       0.04370000
C        1.62680000       2.90250000      -1.19150000
C        2.81820000       2.07070000      -1.75400000
N        2.47610000       0.94580000      -0.85140000
H        0.00060000       0.14250000      -0.66850000
H        1.02080000       2.88370000       1.66940000
H        2.73470000       2.38790000       1.61150000
H        0.86400000       3.25590000      -1.88350000
H        2.72210000       1.80520000      -2.81120000
H        3.80070000       2.53240000      -1.60180000
H        3.23130000       0.59220000      -0.27410000
