19
Properties=species:S:1:pos:R:3 gdb_99725=T pbc="F F F"
C       -0.78540000      -1.53530000      -0.36570000
N       -0.32250000      -0.34230000       0.33210000
C        0.73140000      -0.56670000       1.30220000
C        1.83620000       0.50430000       1.14650000
C        3.08430000       0.34070000       1.97560000
O        1.68750000       1.40200000       0.34780000
C        0.21310000      -0.57830000       2.77020000
N       -1.04040000      -0.09400000       2.88830000
O        0.89920000      -0.97920000       3.69360000
H       -1.27190000      -2.21730000       0.34030000
H       -1.52790000      -1.24990000      -1.11610000
H        0.01850000      -2.09520000      -0.87260000
H       -0.00600000       0.37910000      -0.30970000
H        1.22770000      -1.54230000       1.17850000
H        3.69370000      -0.45580000       1.53020000
H        3.65830000       1.26820000       1.96510000
H        2.83970000       0.02020000       2.99030000
H       -1.52030000       0.17760000       2.04240000
H       -1.47820000      -0.06420000       3.79300000
