17
Properties=species:S:1:pos:R:3 gdb_34539=T pbc="F F F"
N        0.07840000      -1.16780000      -0.05200000
C        0.00860000      -0.01140000      -0.02310000
C       -0.03190000       1.41410000       0.00890000
C       -1.19590000       2.07610000       0.10270000
C       -1.22120000       3.55300000       0.05910000
C       -1.06800000       4.39480000       1.28400000
N        0.01530000       4.29960000       0.30590000
C        1.18410000       3.49060000       0.70330000
C        1.27860000       2.17590000      -0.07840000
H       -2.14030000       1.54200000       0.14320000
H       -1.82950000       3.96050000      -0.74940000
H       -1.57280000       5.35500000       1.34630000
H       -0.94100000       3.87700000       2.23290000
H        2.08100000       4.09490000       0.53250000
H        1.15190000       3.25330000       1.77530000
H        2.09710000       1.57110000       0.32140000
H        1.51780000       2.36950000      -1.13170000
