20
Properties=species:S:1:pos:R:3 gdb_93956=T pbc="F F F"
C       -0.42340000       1.06850000      -0.38140000
C        0.18440000      -0.30480000      -0.16560000
C        1.46520000      -0.60020000      -0.94810000
O        2.13040000      -1.55630000      -0.13230000
C        1.72880000      -1.32690000       1.20920000
O        0.63900000      -0.41930000       1.18450000
C        1.36780000      -2.63930000       1.87600000
C        0.75400000      -3.74520000       1.10610000
N        2.14910000      -3.84710000       1.57550000
H        0.31240000       1.85100000      -0.17350000
H       -0.77100000       1.17530000      -1.41390000
H       -1.27900000       1.21550000       0.28270000
H       -0.56250000      -1.08640000      -0.37340000
H        1.29320000      -1.04360000      -1.93190000
H        2.07420000       0.30910000      -1.06180000
H        2.54290000      -0.83570000       1.76570000
H        1.11200000      -2.52160000       2.92670000
H        0.05390000      -4.41570000       1.59560000
H        0.58580000      -3.59230000       0.04500000
H        2.76200000      -3.64120000       0.78820000
