22
Properties=species:S:1:pos:R:3 gdb_58996=T pbc="F F F"
C        0.00510000       1.55530000      -0.06560000
C        0.04740000       0.01800000       0.01550000
C        0.70520000      -0.57710000      -1.24500000
C        0.72410000      -0.45970000       1.27380000
C        0.19380000      -1.27020000       2.19810000
C        1.18480000      -1.61900000       3.25390000
N        2.36360000      -2.35820000       2.70560000
C        2.43350000      -0.89330000       2.89860000
C        2.16210000      -0.09060000       1.63200000
H        1.01330000       1.97870000      -0.13430000
H       -0.54870000       1.87920000      -0.95290000
H       -0.48150000       1.98600000       0.81490000
H       -0.98800000      -0.34490000       0.05070000
H        1.73620000      -0.22520000      -1.35940000
H        0.72650000      -1.66970000      -1.19950000
H        0.15310000      -0.27980000      -2.14290000
H       -0.81290000      -1.67190000       2.16850000
H        0.88290000      -1.81270000       4.27780000
H        2.85530000      -2.79800000       3.48290000
H        3.10750000      -0.50070000       3.65240000
H        2.86640000      -0.34940000       0.83290000
H        2.26800000       0.98690000       1.81440000
