20
Properties=species:S:1:pos:R:3 gdb_65225=T pbc="F F F"
C        0.05680000       1.47990000       0.52630000
C        0.03460000       0.05120000       0.01510000
C        1.10550000      -0.36800000      -0.96640000
C        1.13820000      -0.87910000       0.45540000
C       -1.36720000      -0.50690000      -0.13410000
C       -2.23200000      -0.01370000      -1.32160000
O       -2.35710000      -1.38820000      -1.80730000
C       -1.56580000      -1.86490000      -0.78630000
N       -1.17690000      -3.03160000      -0.53620000
H        1.08320000       1.84690000       0.61960000
H       -0.47630000       2.15970000      -0.14990000
H       -0.41550000       1.55540000       1.51320000
H        0.85200000      -1.07990000      -1.74430000
H        1.83200000       0.37990000      -1.26580000
H        1.89040000      -0.48020000       1.12800000
H        0.88800000      -1.92250000       0.60890000
H       -1.89640000      -0.44480000       0.82310000
H       -3.21210000       0.40600000      -1.08430000
H       -1.71170000       0.60810000      -2.05420000
H       -1.52580000      -3.69710000      -1.22820000
