17
Properties=species:S:1:pos:R:3 gdb_1485=T pbc="F F F"
C       -0.01900000       1.54200000      -0.05030000
C        0.01480000       0.01230000      -0.04710000
C        0.72520000      -0.58950000      -1.25900000
C        0.80520000      -2.11150000      -1.21790000
O       -0.01300000      -0.19730000      -2.43970000
C        0.66940000       0.25550000      -3.50410000
O        0.14340000       0.55850000      -4.53340000
H        0.99310000       1.96250000      -0.05190000
H       -0.54310000       1.91970000      -0.93220000
H       -0.53410000       1.92190000       0.83650000
H        0.52500000      -0.35200000       0.85260000
H       -1.00550000      -0.38790000      -0.01320000
H        1.73800000      -0.16670000      -1.33200000
H       -0.19840000      -2.54560000      -1.18490000
H        1.31670000      -2.50010000      -2.10320000
H        1.35560000      -2.44050000      -0.33130000
H        1.76030000       0.32260000      -3.31930000
