23
Properties=species:S:1:pos:R:3 gdb_41849=T pbc="F F F"
C        0.00590000       1.54450000      -0.14600000
C        1.44860000       2.06990000      -0.04040000
C        2.21110000       1.53950000       1.19360000
C        1.66080000       2.06580000       2.54030000
C        0.51670000       1.25350000       3.09300000
C        0.08370000       0.12080000       2.53950000
C        0.69980000      -0.45070000       1.28320000
C       -0.06630000       0.01860000       0.01930000
C        2.16820000       0.00140000       1.18630000
H       -0.61320000       2.01710000       0.62430000
H       -0.42430000       1.83670000      -1.11080000
H        2.00640000       1.76220000      -0.93590000
H        1.44800000       3.16670000      -0.03960000
H        3.25120000       1.87470000       1.10530000
H        2.46990000       2.08410000       3.28570000
H        1.35000000       3.11460000       2.43380000
H        0.04720000       1.63030000       3.99950000
H       -0.75780000      -0.41230000       2.97630000
H        0.65280000      -1.54540000       1.32770000
H       -1.11250000      -0.30560000       0.06620000
H        0.37680000      -0.47350000      -0.85730000
H        2.62360000      -0.38400000       0.26570000
H        2.74130000      -0.40330000       2.02830000
