20
Properties=species:S:1:pos:R:3 gdb_63690=T pbc="F F F"
C        0.03760000       1.55580000      -0.26390000
C        0.02900000       0.06880000       0.01530000
O       -1.15430000      -0.56940000      -0.39860000
C        1.30200000      -0.73960000      -0.04880000
C        0.58720000      -0.53490000       1.27550000
C        1.20290000       0.28080000       2.37540000
O        2.15080000      -0.54330000       3.06580000
C        2.47550000      -0.17430000       4.31740000
N        3.40080000      -0.77050000       4.93600000
H        0.95940000       2.03610000       0.07400000
H       -0.04400000       1.73570000      -1.34300000
H       -0.81240000       2.04610000       0.22160000
H       -1.18050000      -0.54210000      -1.36190000
H        1.25070000      -1.72740000      -0.49170000
H        2.23970000      -0.21510000      -0.20340000
H        0.02340000      -1.39250000       1.62900000
H        1.72030000       1.16380000       1.98000000
H        0.43410000       0.62820000       3.07980000
H        1.85960000       0.64970000       4.70690000
H        3.49370000      -0.38430000       5.87320000
