23
Properties=species:S:1:pos:R:3 gdb_97551=T pbc="F F F"
C        0.00470000       1.56000000       0.04480000
C        0.04290000       0.02240000      -0.02400000
C        0.70270000      -0.48070000      -1.22480000
C        1.26270000      -0.86490000      -2.21910000
C        1.90420000      -1.36660000      -3.44250000
C        1.92040000      -2.90910000      -3.41050000
C        1.12620000      -0.85290000      -4.67200000
O        3.23670000      -0.82640000      -3.40690000
C        4.10590000      -1.17110000      -4.46270000
H        1.01680000       1.97320000       0.03670000
H       -0.53440000       1.97380000      -0.81170000
H       -0.49620000       1.88900000       0.96040000
H        0.55360000      -0.37150000       0.86420000
H       -0.98060000      -0.37210000       0.01930000
H        0.90290000      -3.28960000      -3.29070000
H        2.32780000      -3.32130000      -4.33830000
H        2.52370000      -3.25940000      -2.56950000
H        1.17110000       0.23800000      -4.71290000
H        1.53560000      -1.26170000      -5.60050000
H        0.07840000      -1.15600000      -4.60370000
H        4.31280000      -2.24920000      -4.51220000
H        3.73920000      -0.84290000      -5.44540000
H        5.04670000      -0.65270000      -4.25990000
