17
Properties=species:S:1:pos:R:3 gdb_29981=T pbc="F F F"
C       -0.01250000       1.45000000       0.01700000
N       -0.00940000       0.00700000       0.01020000
C       -0.05340000      -0.80410000      -1.11090000
C       -0.03580000      -2.13740000      -0.75060000
C        0.02200000      -2.13310000       0.66840000
C        0.03750000      -0.81190000       1.11630000
C        0.09520000      -0.80200000       2.53690000
C        0.11310000      -2.13150000       2.90740000
N        0.06910000      -2.93810000       1.78350000
H        0.89480000       1.84700000       0.48760000
H       -0.05420000       1.81350000      -1.01170000
H       -0.88110000       1.84300000       0.55840000
H       -0.09430000      -0.35790000      -2.09250000
H       -0.06160000      -2.97460000      -1.42970000
H        0.12080000       0.03910000       3.21110000
H        0.15400000      -2.57080000       3.89150000
H        0.07190000      -3.94140000       1.79670000
