12
Properties=species:S:1:pos:R:3 gdb_49322=T pbc="F F F"
O       -0.19300000      -0.02250000      -0.00040000
C       -0.07410000       1.16910000       0.00790000
N        1.15570000       1.85290000      -0.00060000
C        2.47030000       1.29700000      -0.02020000
O        2.75830000       0.13510000      -0.03250000
C        3.39460000       2.47630000      -0.02050000
C        2.68550000       3.60590000      -0.00340000
C        1.23140000       3.27070000       0.01020000
O        0.28880000       4.01800000       0.02680000
H       -0.90750000       1.89020000       0.02320000
H        4.46670000       2.34140000      -0.03350000
H        3.02760000       4.63080000       0.00120000
