18
Properties=species:S:1:pos:R:3 gdb_58166=T pbc="F F F"
C       -0.01510000       1.57560000      -0.00310000
C        0.04890000       0.04270000       0.01870000
C        0.88740000      -0.45210000       1.20480000
C       -1.40840000      -0.51720000      -0.00270000
O       -2.13320000      -0.00500000      -1.09130000
C       -1.43350000      -2.03830000      -0.08720000
O       -1.65140000      -2.61230000      -1.12920000
C       -1.21600000      -2.80540000       1.14720000
N       -1.08580000      -3.40260000       2.12890000
H        0.99110000       1.99340000      -0.10500000
H       -0.62810000       1.93110000      -0.83260000
H       -0.44330000       1.95990000       0.93040000
H        0.51500000      -0.29840000      -0.91590000
H        1.09060000      -1.52530000       1.17040000
H        1.85360000       0.06130000       1.21100000
H        0.39510000      -0.23490000       2.15950000
H       -1.91030000      -0.21400000       0.92800000
H       -2.12100000      -0.68690000      -1.77870000
