21
Properties=species:S:1:pos:R:3 gdb_108786=T pbc="F F F"
C        0.08620000       1.46030000       0.06530000
C       -0.01370000      -0.07310000       0.03940000
C       -1.47510000      -0.52360000       0.06430000
C        0.77270000      -0.66710000      -1.17680000
N        2.04800000      -1.04120000      -0.55240000
C        1.80140000      -1.11730000       0.80680000
C        2.79980000      -1.70950000       1.76480000
O        2.32820000      -1.65860000       3.08350000
N        0.70630000      -0.60570000       1.22240000
H        1.13070000       1.78100000       0.00600000
H       -0.45870000       1.90120000      -0.77670000
H       -0.33680000       1.85000000       0.99510000
H       -2.00630000      -0.17670000      -0.82900000
H       -1.54390000      -1.61470000       0.10520000
H       -1.98370000      -0.11940000       0.94410000
H        0.25850000      -1.54320000      -1.59570000
H        0.91920000       0.06190000      -1.97900000
H        2.60510000      -1.76480000      -0.98330000
H        3.00780000      -2.75200000       1.47060000
H        3.75120000      -1.16230000       1.66130000
H        1.47900000      -1.19070000       3.02990000
