23
Properties=species:S:1:pos:R:3 gdb_123033=T pbc="F F F"
C        0.03190000       1.36070000       0.16430000
O       -0.01750000      -0.04030000       0.26440000
C       -1.26670000      -0.57490000      -0.11920000
C       -1.21990000      -2.08910000       0.02910000
C       -2.54010000      -2.76000000      -0.36840000
C       -2.49490000      -4.26800000      -0.23370000
C       -2.71470000      -4.92530000       1.11770000
C       -3.74390000      -5.06010000       0.02210000
O       -4.94320000      -4.34350000       0.10880000
H        1.02990000       1.67870000       0.47700000
H       -0.14260000       1.70570000      -0.86790000
H       -0.71440000       1.84580000       0.81440000
H       -2.07260000      -0.15230000       0.50710000
H       -1.49720000      -0.29670000      -1.16320000
H       -0.39730000      -2.47440000      -0.58600000
H       -0.97270000      -2.33400000       1.06860000
H       -3.36190000      -2.37090000       0.24170000
H       -2.78640000      -2.50010000      -1.40700000
H       -1.76550000      -4.75310000      -0.87820000
H       -2.12100000      -5.78920000       1.39630000
H       -2.97360000      -4.26660000       1.94120000
H       -3.83230000      -6.02850000      -0.47080000
H       -5.47540000      -4.74160000       0.80510000
