18
Properties=species:S:1:pos:R:3 gdb_34856=T pbc="F F F"
C       -0.06230000      -1.17560000      -0.09720000
C       -0.01190000       0.02490000      -0.05250000
C        0.01080000       1.47060000       0.04480000
C       -0.13630000       2.06920000       1.48010000
C        1.39860000       1.93510000       1.54160000
N        1.42460000       2.05120000       0.03250000
C        1.28110000       3.48140000      -0.31030000
C        0.41440000       4.25430000       0.72070000
O       -0.55060000       3.41740000       1.36480000
H       -0.09970000      -2.23550000      -0.15190000
H       -0.65470000       1.92320000      -0.69670000
H       -0.78700000       1.58630000       2.21220000
H        1.97550000       2.68310000       2.08910000
H        1.71990000       0.93450000       1.83630000
H        2.27760000       3.93540000      -0.35540000
H        0.85260000       3.53730000      -1.31600000
H        1.06130000       4.70700000       1.48430000
H       -0.14250000       5.06690000       0.24570000
