18
Properties=species:S:1:pos:R:3 gdb_106636=T pbc="F F F"
C        0.49900000       1.33880000       0.00710000
C        0.03490000      -0.08190000       0.13350000
C        0.92120000      -1.30600000      -0.16580000
C        0.29590000      -1.14980000       1.18760000
C        1.01280000      -1.04730000       2.50890000
O        2.31080000      -0.49150000       2.37940000
N       -1.12480000      -1.52840000       1.15380000
C       -1.39780000      -0.59860000       0.12200000
O       -2.40320000      -0.35950000      -0.48330000
H        1.53250000       1.43650000       0.34990000
H        0.44350000       1.67860000      -1.03220000
H       -0.12160000       2.00930000       0.60970000
H        0.58290000      -2.08660000      -0.84190000
H        1.97620000      -1.05820000      -0.24880000
H        0.45090000      -0.38230000       3.17300000
H        1.04390000      -2.03550000       2.99490000
H        2.88530000      -1.16430000       2.00110000
H       -1.44190000      -2.49190000       1.10680000
