14
Properties=species:S:1:pos:R:3 gdb_64576=T pbc="F F F"
O       -0.08330000       1.47980000       0.10090000
C       -0.06830000       0.10360000       0.02280000
C        0.87580000      -0.48910000       1.05280000
O        1.54830000       0.22810000       1.75150000
C       -1.39790000      -0.65580000      -0.04500000
C       -2.10220000      -0.39660000      -1.30430000
N       -0.99030000      -1.40350000      -1.32790000
C        0.20780000      -0.59270000      -1.37490000
O        1.08650000      -0.56330000      -2.17100000
H        0.58570000       1.71720000       0.76610000
H        0.91630000      -1.59260000       1.11780000
H       -1.84580000      -1.20650000       0.77340000
H       -3.07260000      -0.85950000      -1.44510000
H       -1.95940000       0.54520000      -1.82530000
