19
Properties=species:S:1:pos:R:3 gdb_81497=T pbc="F F F"
C       -0.23050000       1.56940000      -0.03290000
C        0.02500000       0.07050000      -0.00280000
C        1.24310000      -0.57210000      -0.75010000
C        2.16440000      -0.02550000       0.37660000
C        0.91390000      -0.58990000       1.11160000
C        1.02200000      -1.83320000       0.17450000
O       -0.18130000      -2.56350000       0.04080000
C        2.13940000      -2.75630000       0.34090000
C        3.01040000      -3.58110000       0.43430000
H        0.65890000       2.18080000       0.13710000
H       -0.64940000       1.86000000      -1.00290000
H       -0.96760000       1.84040000       0.73120000
H       -0.90940000      -0.46310000      -0.17430000
H        1.44070000      -0.58770000      -1.82370000
H        3.10910000      -0.54520000       0.54040000
H        2.30200000       1.05300000       0.41260000
H        0.72770000      -0.62270000       2.18630000
H        0.00260000      -3.32820000      -0.51390000
H        3.78760000      -4.29830000       0.53270000
