21
Properties=species:S:1:pos:R:3 gdb_108868=T pbc="F F F"
C        0.00600000       1.54770000      -0.10540000
C       -0.00790000       0.02300000      -0.01500000
O        0.61700000      -0.46230000      -1.19770000
C        0.94290000      -1.83640000      -1.12950000
C        2.00260000      -2.09570000      -0.05640000
C        1.59500000      -1.42700000       1.23450000
C        2.29100000      -1.90120000       2.47950000
O        1.86130000      -1.16220000       3.60620000
C        0.65990000      -0.47890000       1.23930000
H        1.03520000       1.91740000      -0.09450000
H       -0.47240000       1.87210000      -1.03350000
H       -0.53300000       1.98660000       0.73940000
H       -1.06340000      -0.31340000      -0.00750000
H        0.04300000      -2.43620000      -0.91320000
H        1.30370000      -2.11740000      -2.12330000
H        2.12370000      -3.17810000       0.09050000
H        2.97810000      -1.71840000      -0.39290000
H        2.09110000      -2.98050000       2.60920000
H        3.38260000      -1.80970000       2.33170000
H        2.31270000      -1.50840000       4.38060000
H        0.35130000      -0.02540000       2.17530000
