18
Properties=species:S:1:pos:R:3 gdb_33790=T pbc="F F F"
N       -0.02990000      -1.14020000      -0.08630000
C       -0.04310000       0.01450000      -0.05540000
C       -0.00740000       1.47130000       0.03790000
C       -0.18540000       2.14070000       1.43800000
C        0.69680000       3.28510000       0.85450000
C        1.36380000       2.20540000      -0.04610000
C       -0.16520000       4.19360000      -0.03770000
C       -1.28370000       3.35220000      -0.68680000
O       -0.89390000       1.99790000      -0.93970000
H       -1.20160000       2.35230000       1.77570000
H        0.34100000       1.56720000       2.20260000
H        1.33290000       3.84900000       1.53790000
H        2.15460000       1.65730000       0.47020000
H        1.68450000       2.48660000      -1.05140000
H       -0.62500000       4.99930000       0.54510000
H        0.46950000       4.66370000      -0.79690000
H       -2.16910000       3.35250000      -0.03770000
H       -1.59030000       3.75690000      -1.65430000
