13
Properties=species:S:1:pos:R:3 gdb_48833=T pbc="F F F"
O       -0.12030000      -0.04030000       0.24200000
C        0.02660000       1.15010000       0.19180000
C        1.34590000       1.81890000      -0.00840000
O        1.39600000       3.23910000       0.24790000
C        1.60800000       2.80080000      -1.08080000
C        3.07500000       2.66850000      -1.43400000
O        3.63690000       1.77220000      -0.46670000
C        2.68280000       1.16700000       0.30140000
O        2.92510000       0.29670000       1.07660000
H       -0.81280000       1.87380000       0.27780000
H        0.86920000       3.09490000      -1.82070000
H        3.20410000       2.24500000      -2.43560000
H        3.60470000       3.62310000      -1.37020000
