8
Properties=species:S:1:pos:R:3 gdb_113=T pbc="F F F"
N       -0.09460000       1.29310000       0.01020000
C       -0.01870000       0.04050000       0.00240000
O       -1.17600000      -0.69140000       0.00940000
C       -1.07740000      -2.05190000       0.00140000
O       -2.03640000      -2.75380000       0.00690000
H        0.83740000       1.70420000       0.00350000
H        0.88760000      -0.57590000      -0.00980000
H       -0.03110000      -2.40800000      -0.01040000
