21
Properties=species:S:1:pos:R:3 gdb_95305=T pbc="F F F"
C       -0.19380000       1.54490000       0.07650000
C        0.02170000       0.03020000      -0.03750000
C        0.78590000      -0.36980000      -1.32650000
C        2.31300000      -0.20600000      -1.18390000
C        2.75390000      -0.71010000       0.19250000
O        2.33550000      -2.05910000       0.39330000
C        1.10330000      -2.00790000       1.11570000
C        0.78660000      -0.50320000       1.18860000
O        2.11150000       0.04600000       1.19930000
H        0.76100000       2.07460000       0.13360000
H       -0.74790000       1.92570000      -0.78710000
H       -0.76450000       1.79560000       0.97750000
H       -0.96280000      -0.45640000      -0.05500000
H        0.57520000      -1.41940000      -1.55550000
H        0.41600000       0.21240000      -2.17670000
H        2.83180000      -0.76410000      -1.97010000
H        2.61790000       0.84290000      -1.27090000
H        3.83520000      -0.64680000       0.34750000
H        0.33520000      -2.58430000       0.58830000
H        1.24540000      -2.43640000       2.11540000
H        0.29910000      -0.21420000       2.12310000
