16
Properties=species:S:1:pos:R:3 gdb_132772=T pbc="F F F"
C        0.01130000       1.50870000      -0.00120000
C        0.00020000       0.00740000      -0.00920000
N       -0.05490000      -0.64110000      -1.18000000
C       -0.06240000      -1.97230000      -1.12980000
N       -0.02110000      -2.74270000      -0.04380000
C        0.03440000      -2.11680000       1.13930000
C        0.08290000      -2.93160000       2.39940000
C        0.04570000      -0.72720000       1.16990000
F        0.10090000      -0.08970000       2.34740000
H        0.91440000       1.89130000       0.48580000
H       -0.02960000       1.87640000      -1.02670000
H       -0.84190000       1.90380000       0.56030000
H       -0.10700000      -2.48950000      -2.08510000
H        0.98980000      -2.71270000       2.97280000
H       -0.76630000      -2.69780000       3.05010000
H        0.06280000      -3.99170000       2.14590000
