19
Properties=species:S:1:pos:R:3 gdb_120454=T pbc="F F F"
C        0.50840000       1.48310000      -0.18400000
C        0.08920000       0.04140000       0.03890000
O        0.81990000      -0.92020000      -0.76570000
C        1.27460000      -1.69630000       0.37390000
C        2.78440000      -1.84500000       0.46180000
C        3.35050000      -2.66140000      -0.69480000
O        4.75460000      -2.74510000      -0.51170000
C        0.59800000      -0.67500000       1.29980000
O        0.53810000      -0.48970000       2.47680000
H        1.58180000       1.61020000      -0.01970000
H        0.27490000       1.79050000      -1.20740000
H       -0.03250000       2.13700000       0.50700000
H       -0.99590000      -0.07540000      -0.09770000
H        0.78220000      -2.68070000       0.40030000
H        3.25850000      -0.85780000       0.46810000
H        3.03270000      -2.33380000       1.41110000
H        2.88590000      -3.66160000      -0.70270000
H        3.09310000      -2.17080000      -1.64480000
H        5.13130000      -3.19180000      -1.27520000
