17
Properties=species:S:1:pos:R:3 gdb_34052=T pbc="F F F"
N        0.01340000      -1.14290000       0.07270000
C        0.02130000       0.01120000       0.00530000
C       -0.03420000       1.45590000      -0.06800000
C        0.44110000       2.16040000      -1.29680000
N        1.27520000       2.13970000      -0.10380000
C        1.41990000       3.40170000       0.64930000
C        0.23630000       3.71210000       1.56670000
O       -0.99360000       3.45990000       0.90080000
C       -1.18210000       2.07460000       0.73600000
H        0.81330000       1.58800000      -2.14140000
H       -0.08430000       3.08160000      -1.54080000
H        2.33760000       3.33600000       1.24440000
H        1.55540000       4.21330000      -0.07310000
H        0.28830000       3.10650000       2.48500000
H        0.23680000       4.76650000       1.85440000
H       -2.13160000       1.93190000       0.21270000
H       -1.24840000       1.57300000       1.71430000
