16
Properties=species:S:1:pos:R:3 gdb_8763=T pbc="F F F"
C        0.06910000       1.58080000       0.01260000
C       -0.00810000       0.04320000       0.06430000
C        0.76130000      -0.49520000       1.18240000
C        1.39600000      -0.93300000       2.10390000
C       -1.48580000      -0.45110000       0.13550000
O       -2.17490000       0.11190000       1.21200000
C       -2.20560000      -0.15640000      -1.16660000
O       -3.23620000       0.47100000      -1.19660000
H        1.10990000       1.90940000      -0.02240000
H       -0.44540000       1.96740000      -0.87340000
H       -0.40340000       2.00500000       0.90010000
H        0.41530000      -0.36720000      -0.86450000
H        1.95500000      -1.32020000       2.91950000
H       -1.45490000      -1.55160000       0.22700000
H       -2.95430000       0.54400000       0.82790000
H       -1.73880000      -0.55820000      -2.08980000
