24
Properties=species:S:1:pos:R:3 gdb_14871=T pbc="F F F"
C        0.08210000       1.73160000      -0.10130000
C       -0.31960000       0.27180000      -0.34230000
C        0.71220000      -0.49160000      -1.16490000
C        2.10760000      -0.79450000      -0.54910000
C        2.08340000      -2.17440000      -1.25790000
C        0.54340000      -2.02350000      -1.45340000
C       -0.29750000      -2.81410000      -0.44780000
C       -0.33580000      -4.31430000      -0.75810000
H        1.03860000       1.79650000       0.42850000
H        0.19240000       2.27290000      -1.04770000
H       -0.66660000       2.25840000       0.49870000
H       -0.46760000      -0.22680000       0.62370000
H       -1.29110000       0.24120000      -0.85390000
H        0.85060000       0.02720000      -2.12230000
H        2.92950000      -0.11570000      -0.79010000
H        2.05430000      -0.89270000       0.54040000
H        2.62510000      -2.15920000      -2.20770000
H        2.42780000      -3.03810000      -0.68190000
H        0.18270000      -2.25170000      -2.46300000
H        0.09220000      -2.66300000       0.56750000
H       -1.32250000      -2.42220000      -0.44080000
H       -0.77490000      -4.50030000      -1.74480000
H        0.66920000      -4.74960000      -0.75840000
H       -0.93250000      -4.85890000      -0.01960000
