15
Properties=species:S:1:pos:R:3 gdb_77030=T pbc="F F F"
O       -0.01840000       1.42910000       0.00180000
C        0.04240000       0.04520000      -0.01560000
C       -1.25920000      -0.67050000       0.14290000
C       -2.54130000       0.12500000       0.32980000
C       -3.72780000      -0.67760000       0.03370000
N       -4.65590000      -1.32840000      -0.18830000
C       -0.54810000      -0.71290000      -1.21240000
C       -1.03510000       0.06260000      -2.31480000
N       -1.39920000       0.71240000      -3.20030000
H        0.55570000       1.78330000      -0.68700000
H        0.92870000      -0.39600000       0.43840000
H       -1.23000000      -1.60970000       0.68510000
H       -2.60570000       0.47570000       1.36610000
H       -2.53790000       1.01600000      -0.30280000
H       -0.08050000      -1.65050000      -1.49220000
