12
Properties=species:S:1:pos:R:3 gdb_42352=T pbc="F F F"
O       -0.04100000      -0.14870000       0.00200000
C       -0.05500000       1.05820000       0.00590000
C        1.22100000       1.91610000      -0.00050000
C        2.44700000       1.12800000      -0.01370000
N        3.43330000       0.52870000      -0.02430000
C       -1.27590000       1.82910000       0.01690000
C       -2.30410000       2.47280000       0.02600000
C       -3.45460000       3.19200000       0.03640000
C       -4.47810000       3.83260000       0.04480000
H        1.19220000       2.58030000      -0.87290000
H        1.20600000       2.57210000       0.87850000
H       -5.38020000       4.39470000       0.05300000
