21
Properties=species:S:1:pos:R:3 gdb_71296=T pbc="F F F"
C       -0.01750000       1.46250000       0.06820000
C       -0.02860000      -0.04690000      -0.04850000
C        0.94040000      -0.60560000      -1.09420000
C        1.15600000      -2.11130000      -0.87950000
C       -0.16430000      -2.89700000      -0.75830000
C       -1.24260000      -2.18090000       0.03820000
C       -1.03580000      -1.29230000       1.24120000
O        0.24110000      -0.66030000       1.26800000
C       -1.43200000      -0.68490000      -0.07800000
H        0.97370000       1.81150000       0.37450000
H       -0.26200000       1.92330000      -0.89560000
H       -0.74740000       1.79970000       0.80960000
H        0.52720000      -0.39890000      -2.09060000
H        1.90270000      -0.08300000      -1.03440000
H        1.75400000      -2.52580000      -1.69820000
H        1.73450000      -2.23850000       0.03860000
H       -0.57160000      -3.08290000      -1.76190000
H        0.03600000      -3.88330000      -0.32290000
H       -2.18890000      -2.71680000       0.09670000
H       -1.56080000      -1.40070000       2.18410000
H       -2.33800000      -0.18920000      -0.40280000
