16
Properties=species:S:1:pos:R:3 gdb_19952=T pbc="F F F"
O       -0.15260000      -0.06610000       0.30480000
C       -0.12720000       1.12370000       0.23700000
C       -1.16460000       2.25420000       0.32070000
N       -0.03290000       3.21000000       0.42480000
C        0.98890000       2.18660000       0.06670000
C        2.19960000       2.11040000       0.95400000
C        3.38950000       1.34780000       0.50210000
N        3.44660000       2.81460000       0.60350000
H       -1.77050000       2.31830000      -0.59470000
H       -1.83650000       2.24030000       1.18560000
H       -0.08420000       3.99850000      -0.20830000
H        1.30580000       2.21230000      -0.99060000
H        1.96910000       2.14370000       2.01570000
H        3.99410000       0.81140000       1.22680000
H        3.35510000       0.88920000      -0.48320000
H        3.36440000       3.22830000      -0.32300000
