17
Properties=species:S:1:pos:R:3 gdb_13098=T pbc="F F F"
O       -0.13240000       0.88410000      -0.93340000
C       -0.12540000      -0.20350000      -0.05690000
C       -0.00880000       0.01200000       1.47910000
C       -1.05710000      -1.12200000       1.66820000
C       -1.47040000      -0.95980000       0.19120000
O       -2.56570000      -0.04730000       0.11190000
C       -3.15300000       0.09230000      -1.09670000
N       -3.96160000       1.04070000      -1.29350000
H       -0.82940000       1.48630000      -0.64610000
H        0.64110000      -0.89450000      -0.42050000
H        0.97600000      -0.11120000       1.93340000
H       -0.41510000       0.98470000       1.76980000
H       -0.60070000      -2.09740000       1.85130000
H       -1.85440000      -0.95600000       2.39350000
H       -1.68430000      -1.85640000      -0.40090000
H       -2.86570000      -0.68650000      -1.81530000
H       -4.34350000       0.98130000      -2.23520000
