19
Properties=species:S:1:pos:R:3 gdb_73214=T pbc="F F F"
O        0.25980000       1.29300000       0.01030000
C        0.10440000      -0.10630000      -0.03470000
C        0.05810000      -0.66220000      -1.46690000
O       -1.15320000      -1.39400000      -1.17260000
C       -1.34290000      -0.65600000       0.05930000
C       -1.70140000      -1.52360000       1.27480000
C       -0.85770000      -1.14460000       2.47050000
C        0.42960000      -0.82210000       2.32450000
C        1.04800000      -0.82250000       0.94550000
H        0.20980000       1.56320000       0.93460000
H       -0.10210000       0.12520000      -2.21390000
H        0.87150000      -1.32200000      -1.78800000
H       -2.07250000       0.15270000      -0.08030000
H       -2.76740000      -1.45740000       1.50950000
H       -1.50620000      -2.56790000       0.99490000
H       -1.32060000      -1.15850000       3.45280000
H        1.04510000      -0.57330000       3.18360000
H        1.19650000      -1.85720000       0.60700000
H        2.02710000      -0.33530000       0.92710000
