21
Properties=species:S:1:pos:R:3 gdb_106142=T pbc="F F F"
C        0.15590000       1.43260000       0.31640000
C       -0.01690000      -0.02460000      -0.13390000
C       -1.43500000      -0.49610000      -0.11880000
C       -2.40950000      -0.81730000       1.00930000
C       -3.48940000       0.08450000       0.42260000
C       -2.74650000      -0.09570000      -0.93050000
C       -2.93980000      -1.60080000      -1.28190000
C       -2.05190000      -1.86440000      -0.07100000
O       -1.37550000      -3.02640000       0.24650000
H        1.20840000       1.73150000       0.28670000
H       -0.40350000       2.11560000      -0.33180000
H       -0.20740000       1.57210000       1.33970000
H        0.39950000      -0.14670000      -1.14320000
H        0.57020000      -0.68650000       0.51520000
H       -2.16460000      -1.01250000       2.04690000
H       -4.53610000      -0.24110000       0.46570000
H       -3.41080000       1.10840000       0.79980000
H       -2.80580000       0.66010000      -1.71110000
H       -3.96600000      -1.98900000      -1.29870000
H       -2.42470000      -1.87110000      -2.20820000
H       -1.96000000      -3.58680000       0.76880000
