17
Properties=species:S:1:pos:R:3 gdb_33020=T pbc="F F F"
C       -0.02350000       1.34760000       0.03420000
O        0.00300000      -0.05970000       0.01080000
C        0.65630000      -0.56760000      -1.13630000
C        0.62280000      -2.07450000      -1.05220000
N        1.64270000      -2.66830000      -0.42270000
C        1.58320000      -3.99690000      -0.32110000
C        0.52710000      -4.73680000      -0.83900000
C       -0.47150000      -4.01600000      -1.48290000
N       -0.43380000      -2.68770000      -1.59680000
H        0.99140000       1.77610000       0.04440000
H       -0.56160000       1.76130000      -0.83360000
H       -0.54280000       1.64720000       0.94760000
H        0.14150000      -0.24310000      -2.05280000
H        1.70230000      -0.22850000      -1.17040000
H        2.41250000      -4.48160000       0.18990000
H        0.48830000      -5.81600000      -0.75250000
H       -1.32980000      -4.51660000      -1.92610000
