21
Properties=species:S:1:pos:R:3 gdb_73842=T pbc="F F F"
C       -0.00650000       1.50920000       0.11770000
C       -0.06080000       0.02360000      -0.00280000
C       -0.07110000      -0.77380000      -1.07940000
C       -0.03200000      -0.45660000      -2.53620000
C        0.00650000      -2.19340000      -0.51690000
C        1.47290000      -2.41070000      -0.01740000
C        1.48530000      -1.48380000       1.23370000
C        0.02330000      -0.92890000       1.19010000
O       -0.69790000      -2.07480000       0.72410000
H        0.90960000       1.83520000       0.62860000
H       -0.03320000       2.00140000      -0.85840000
H       -0.84610000       1.89280000       0.71150000
H       -0.04990000       0.62080000      -2.72230000
H        0.87410000      -0.85970000      -3.00850000
H       -0.88300000      -0.90410000      -3.06550000
H       -0.41290000      -2.99530000      -1.12560000
H        1.62890000      -3.45600000       0.25970000
H        2.21750000      -2.14060000      -0.77020000
H        1.64780000      -2.05470000       2.15090000
H        2.23680000      -0.69190000       1.18480000
H       -0.38060000      -0.57640000       2.13990000
