15
Properties=species:S:1:pos:R:3 gdb_19038=T pbc="F F F"
O       -0.02070000       0.01460000       0.17370000
C       -0.01670000       1.21340000       0.01150000
N       -1.13220000       2.02140000      -0.17630000
C       -0.76430000       3.42190000      -0.01890000
C       -0.20560000       3.70840000       1.42000000
C        1.18240000       3.37840000       0.87690000
C        0.70020000       3.48670000      -0.54920000
C        1.16290000       2.14680000      -0.05380000
H       -2.01580000       1.67900000       0.17420000
H       -1.51350000       4.09970000      -0.42320000
H       -0.27770000       4.77040000       1.67050000
H       -0.61760000       3.10650000       2.23700000
H        2.12940000       3.69280000       1.29740000
H        1.08330000       4.01640000      -1.41050000
H        2.12650000       1.74480000      -0.33640000
