20
Properties=species:S:1:pos:R:3 gdb_6771=T pbc="F F F"
C       -0.07620000       1.55240000       0.10330000
C       -0.04140000       0.02660000      -0.01710000
C       -1.43510000      -0.60710000       0.05730000
C       -1.38630000      -2.12110000      -0.06340000
O       -2.73740000      -2.61420000       0.01810000
C       -2.88170000      -3.95260000      -0.07210000
C       -4.33850000      -4.33960000       0.02700000
O       -1.96020000      -4.71660000      -0.21220000
H        0.93000000       1.97880000       0.04720000
H       -0.67320000       1.99900000      -0.69940000
H       -0.51810000       1.86410000       1.05600000
H        0.43710000      -0.25570000      -0.96400000
H        0.59100000      -0.38960000       0.77790000
H       -1.91780000      -0.33970000       1.00550000
H       -2.07210000      -0.20550000      -0.74050000
H       -0.94660000      -2.44010000      -1.01460000
H       -0.79190000      -2.57470000       0.73710000
H       -4.91000000      -3.85820000      -0.77170000
H       -4.43220000      -5.42210000      -0.04860000
H       -4.75500000      -3.99380000       0.97730000
