14
Properties=species:S:1:pos:R:3 gdb_15499=T pbc="F F F"
O       -0.62330000       0.82280000      -0.60240000
C        0.20690000       0.98930000       0.25300000
C        1.40280000       1.91910000       0.12910000
C        1.45470000       2.74280000      -1.16210000
C        1.38730000       4.17260000      -0.68780000
C        1.32970000       4.29300000       0.64420000
C        1.35120000       2.96230000       1.28440000
O        1.32200000       2.69180000       2.46060000
H        0.14810000       0.47480000       1.23400000
H        2.29600000       1.30580000       0.29880000
H        2.36780000       2.56320000      -1.74100000
H        0.61160000       2.49650000      -1.81710000
H        1.38530000       5.00210000      -1.38690000
H        1.27420000       5.20760000       1.21970000
