21
Properties=species:S:1:pos:R:3 gdb_72131=T pbc="F F F"
C        0.01110000       1.55570000      -0.05730000
C       -0.00510000       0.04960000      -0.06630000
C        0.46790000      -0.82340000      -1.24050000
C       -0.23780000      -1.93960000      -0.44330000
O        0.61850000      -2.07230000       0.70190000
C        0.37560000      -0.76670000       1.24830000
C       -1.12050000      -0.84870000       1.61510000
C       -1.29610000      -0.87300000       0.08760000
C       -2.60830000      -0.68340000      -0.62730000
H        1.03970000       1.93520000      -0.07920000
H       -0.50960000       1.96510000      -0.93010000
H       -0.46900000       1.96540000       0.83840000
H       -0.05330000      -0.55320000      -2.16340000
H        1.53670000      -0.95750000      -1.42780000
H       -0.50450000      -2.91350000      -0.85250000
H        1.16400000      -0.47530000       1.94160000
H       -1.43000000      -1.70820000       2.21590000
H       -1.51490000       0.07910000       2.03920000
H       -3.10570000       0.23960000      -0.30920000
H       -2.47940000      -0.63360000      -1.71430000
H       -3.29120000      -1.51510000      -0.41690000
