20
Properties=species:S:1:pos:R:3 gdb_22722=T pbc="F F F"
C       -0.25660000       1.48350000       0.00500000
C        0.12010000      -0.00420000       0.05020000
C        0.81140000      -0.46860000      -1.20150000
C        0.09540000      -0.93450000      -2.42870000
C        1.02570000      -1.91360000      -1.72800000
C        2.43200000      -1.55660000      -2.03670000
C        2.26940000      -0.11030000      -1.58030000
N        3.40580000      -2.29350000      -2.37570000
O        4.59390000      -1.53450000      -2.46970000
H        0.63020000       2.11220000      -0.12880000
H       -0.93950000       1.69150000      -0.82510000
H       -0.74720000       1.79270000       0.93290000
H        0.76950000      -0.19070000       0.91570000
H       -0.78270000      -0.60760000       0.20680000
H       -0.95910000      -1.15990000      -2.29700000
H        0.34870000      -0.55020000      -3.41350000
H        0.67170000      -2.86070000      -1.34050000
H        2.41240000       0.67710000      -2.32640000
H        2.90990000       0.10020000      -0.71790000
H        5.23990000      -2.20640000      -2.71060000
