21
Properties=species:S:1:pos:R:3 gdb_70683=T pbc="F F F"
C       -0.00710000       1.54110000       0.02110000
C        0.05490000       0.02880000      -0.01500000
C       -0.83860000      -0.74710000       0.95130000
C        0.64120000      -0.73600000       1.17670000
C        1.46120000      -2.01180000       0.97460000
C        1.85950000      -2.25950000      -0.48780000
C        0.67460000      -2.02410000      -1.44110000
C        0.24620000      -0.56330000      -1.37680000
O        0.12390000       0.11050000      -2.37900000
H        0.92060000       1.98220000      -0.35660000
H       -0.82160000       1.90880000      -0.60850000
H       -0.16710000       1.89800000       1.04300000
H       -1.47490000      -0.14900000       1.59490000
H       -1.29640000      -1.66920000       0.60870000
H        0.98390000      -0.09080000       1.98030000
H        2.36410000      -1.96020000       1.59150000
H        0.88830000      -2.87160000       1.34450000
H        2.67420000      -1.58000000      -0.76810000
H        2.24640000      -3.27700000      -0.60700000
H        0.93070000      -2.24370000      -2.48000000
H       -0.16300000      -2.67670000      -1.16150000
