18
Properties=species:S:1:pos:R:3 gdb_67301=T pbc="F F F"
O       -0.11390000       1.40520000      -0.00630000
C       -0.02900000       0.03010000      -0.00650000
C        0.81790000      -0.96680000      -0.88410000
C        1.96570000      -1.05790000       0.12800000
C        0.68830000      -0.97500000       0.97160000
N       -0.06400000      -1.90420000      -0.01750000
C       -1.19430000      -0.91000000      -0.09200000
C       -2.51360000      -1.01470000       0.58210000
C       -2.40710000      -1.00800000      -0.94370000
H        0.77260000       1.77860000       0.05720000
H        0.82180000      -1.07010000      -1.96980000
H        2.49850000      -2.01140000       0.16090000
H        2.65940000      -0.21400000       0.18010000
H        0.54140000      -1.08790000       2.04630000
H       -2.76520000      -1.95640000       1.05870000
H       -2.91740000      -0.13380000       1.07010000
H       -2.73970000      -0.12250000      -1.47530000
H       -2.58950000      -1.94530000      -1.45890000
