15
Properties=species:S:1:pos:R:3 gdb_70974=T pbc="F F F"
O       -0.10940000       1.36450000      -0.03340000
C        0.05550000      -0.00040000      -0.04740000
C        0.97950000      -0.84050000      -0.92950000
C        0.10520000      -2.03970000      -0.44570000
O        0.43470000      -2.14020000       0.98330000
C       -0.28470000      -0.92030000       1.14660000
C       -1.06680000      -1.01890000      -0.12110000
C        0.02310000      -3.27930000      -1.15460000
C       -0.05170000      -4.30670000      -1.77380000
H        0.56250000       1.74980000       0.54040000
H        0.81660000      -0.63110000      -1.98860000
H        2.04600000      -0.90920000      -0.69520000
H       -0.54870000      -0.57920000       2.13880000
H       -2.11440000      -0.97510000      -0.38180000
H       -0.11490000      -5.21900000      -2.31430000
