20
Properties=species:S:1:pos:R:3 gdb_99309=T pbc="F F F"
C       -0.53740000       0.97520000      -0.82500000
O       -0.11850000      -0.32410000      -0.38400000
C        0.85100000      -0.90070000      -1.11570000
O        1.35000000      -0.39460000      -2.09130000
C        1.27500000      -2.23780000      -0.51220000
N        2.10420000      -3.05530000      -1.37510000
C        1.37830000      -3.87000000      -2.31880000
C        0.70440000      -3.32660000      -3.56680000
C        1.96990000      -4.15320000      -3.66410000
H        0.30160000       1.67540000      -0.81180000
H       -0.93740000       0.92550000      -1.84070000
H       -1.31060000       1.29150000      -0.12500000
H        1.81390000      -1.99830000       0.41570000
H        0.38280000      -2.79270000      -0.20880000
H        2.76530000      -2.45870000      -1.86170000
H        0.87510000      -4.70240000      -1.83140000
H       -0.22970000      -3.77570000      -3.88840000
H        0.79190000      -2.26400000      -3.75750000
H        2.88540000      -3.63270000      -3.92890000
H        1.91230000      -5.16330000      -4.05400000
