21
Properties=species:S:1:pos:R:3 gdb_93900=T pbc="F F F"
C       -0.20790000       1.50340000       0.01330000
C        0.03310000      -0.00000000       0.02670000
O        0.71610000      -0.33610000      -1.17650000
C        0.87440000      -1.73880000      -1.31440000
C        1.85940000      -2.34400000      -0.29930000
O        3.19330000      -2.38460000      -0.79430000
C        1.76350000      -1.64480000       1.05400000
C        2.31940000      -0.24440000       1.21880000
C        0.83180000      -0.46640000       1.23390000
H        0.74230000       2.04490000       0.01040000
H       -0.77230000       1.78780000      -0.87890000
H       -0.77610000       1.80670000       0.89790000
H       -0.94190000      -0.52070000       0.03100000
H       -0.10700000      -2.23220000      -1.21240000
H        1.25100000      -1.91900000      -2.32470000
H        1.58790000      -3.39800000      -0.17080000
H        3.56110000      -1.49930000      -0.70350000
H        1.89990000      -2.29620000       1.91090000
H        2.82840000      -0.00660000       2.14550000
H        2.72300000       0.25450000       0.34290000
H        0.31290000      -0.37820000       2.18410000
