19
Properties=species:S:1:pos:R:3 gdb_79797=T pbc="F F F"
C        0.01570000       1.75270000      -0.46000000
C        0.10560000       0.27990000      -0.19270000
C       -0.02390000      -0.87010000      -1.12860000
C        1.31610000      -1.62620000      -1.13170000
C        1.70320000      -1.42470000       0.32750000
C        0.94540000      -0.45420000       0.88350000
C       -0.32200000      -1.00120000       1.58500000
O       -0.98470000      -0.27690000       2.58160000
C       -0.93970000      -0.75270000       0.14940000
H        0.94540000       2.13550000      -0.89660000
H       -0.79660000       1.97200000      -1.16090000
H       -0.17030000       2.32580000       0.45620000
H       -0.57890000      -0.75430000      -2.05940000
H        1.23650000      -2.70160000      -1.33310000
H        1.98860000      -1.20920000      -1.89480000
H        2.08830000      -2.25950000       0.90770000
H       -0.25580000      -2.02600000       1.95900000
H       -1.01530000       0.64790000       2.31120000
H       -2.01530000      -0.66200000       0.00570000
