17
Properties=species:S:1:pos:R:3 gdb_112228=T pbc="F F F"
C       -0.12740000       1.45000000      -0.20730000
O       -0.08970000       0.13790000       0.31080000
C       -1.27840000      -0.57440000       0.12090000
C       -1.41390000      -1.19230000      -1.30850000
C       -0.90700000      -2.52020000      -0.72450000
O       -0.45410000      -3.51960000      -1.18630000
C       -1.13570000      -2.01190000       0.73380000
C       -0.16880000      -2.28230000       1.76790000
C        0.64190000      -2.53280000       2.61850000
H        0.83390000       1.91280000       0.02520000
H       -0.27240000       1.46310000      -1.29780000
H       -0.93230000       2.04160000       0.25510000
H       -2.14490000      -0.00270000       0.47730000
H       -2.44370000      -1.26980000      -1.67160000
H       -0.79040000      -0.75150000      -2.08920000
H       -2.13380000      -2.36080000       1.03300000
H        1.36460000      -2.74640000       3.36640000
