20
Properties=species:S:1:pos:R:3 gdb_95520=T pbc="F F F"
C       -0.05820000       1.59950000       0.03820000
C        0.04260000       0.06870000       0.04230000
O        0.67140000      -0.43170000      -1.13650000
C        2.03380000      -0.06860000      -1.27620000
C        2.82150000      -0.19700000      -0.00370000
C        2.23020000      -0.40460000       1.17100000
C        0.75160000      -0.47740000       1.27740000
C        0.06130000      -0.38170000       2.59170000
N        0.23670000      -1.69370000       1.95740000
H        0.91930000       2.06840000       0.18220000
H       -0.47430000       1.94090000      -0.91400000
H       -0.71320000       1.94250000       0.84390000
H       -0.97140000      -0.34850000       0.00140000
H        2.43990000      -0.74150000      -2.04100000
H        2.13250000       0.95520000      -1.68000000
H        3.90210000      -0.11870000      -0.08730000
H        2.80670000      -0.54070000       2.08120000
H        0.63970000      -0.22720000       3.49950000
H       -0.93070000       0.06500000       2.61250000
H       -0.63170000      -1.98890000       1.51530000
