15
Properties=species:S:1:pos:R:3 gdb_14012=T pbc="F F F"
O       -0.31500000       0.45020000       0.77650000
C        0.25110000       0.83350000      -0.21540000
C        1.41540000       1.76150000      -0.20520000
N        2.26950000       1.70450000      -1.42120000
C        1.49320000       2.89010000      -1.18010000
C        0.46500000       3.49230000      -2.13550000
O        0.94750000       4.82040000      -1.82800000
C        1.95870000       4.32350000      -0.92920000
H       -0.05980000       0.52080000      -1.23730000
H        1.87430000       1.91530000       0.76890000
H        3.24750000       1.83630000      -1.17290000
H        0.61310000       3.22510000      -3.18860000
H       -0.59070000       3.36880000      -1.86720000
H        1.83290000       4.70490000       0.09160000
H        2.97560000       4.55020000      -1.27900000
