15
Properties=species:S:1:pos:R:3 gdb_132005=T pbc="F F F"
C        0.00530000       1.51480000      -0.00500000
C       -0.03580000       0.02030000       0.00260000
C       -1.15030000      -0.72910000      -0.10680000
F       -2.33360000      -0.13250000      -0.23400000
C       -1.12700000      -2.19280000      -0.09280000
N       -2.21140000      -2.86230000      -0.19940000
N        0.14950000      -2.78040000       0.04350000
C        1.18490000      -2.02850000       0.14470000
N        1.17030000      -0.66580000       0.13290000
H        0.61690000       1.88930000      -0.83470000
H       -1.00270000       1.91370000      -0.11280000
H        0.43440000       1.90350000       0.92630000
H       -1.97770000      -3.85680000      -0.16750000
H        2.17160000      -2.47630000       0.25010000
H        2.03020000      -0.14850000       0.21730000
