16
Properties=species:S:1:pos:R:3 gdb_88924=T pbc="F F F"
N        0.11940000       0.98170000       0.05680000
H        1.30410000      -0.09320000       1.69020000
H        0.77150000       1.68460000      -0.27630000
H       -0.47530000       0.72710000      -0.72480000
C       -0.66240000       1.48780000       1.15900000
C       -1.49420000       0.48300000       1.91820000
C       -0.22830000       1.03340000       2.53450000
N        0.93690000       0.20880000       2.58480000
C        1.55860000      -0.10570000       3.74180000
O        1.21260000       0.22740000       4.85700000
C        2.77020000      -0.92810000       3.52530000
N        3.72070000      -1.57170000       3.39210000
H       -1.05960000       2.50000000       1.08940000
H       -2.44590000       0.80170000       2.32710000
H       -1.45920000      -0.54360000       1.57060000
H       -0.30440000       1.70800000       3.37730000
