18
Properties=species:S:1:pos:R:3 gdb_33256=T pbc="F F F"
O       -0.02860000       1.44510000      -0.09100000
C        0.01900000       0.03510000      -0.00960000
C       -1.37350000      -0.57070000       0.03640000
O       -2.01850000      -0.19040000      -1.17080000
C       -3.32470000      -0.55300000      -1.29460000
C       -4.10980000      -1.28090000      -0.42380000
N       -5.35640000      -1.38250000      -1.00860000
C       -5.36470000      -0.73880000      -2.21360000
C       -4.11300000      -0.20920000      -2.42670000
H       -0.63110000       1.64780000      -0.81620000
H        0.57120000      -0.40100000      -0.85740000
H        0.55850000      -0.21870000       0.90890000
H       -1.32680000      -1.66710000       0.11830000
H       -1.93270000      -0.17640000       0.89720000
H       -3.89990000      -1.72640000       0.53240000
H       -6.14080000      -1.85720000      -0.60020000
H       -6.25340000      -0.70690000      -2.82280000
H       -3.78430000       0.35710000      -3.28310000
