19
Properties=species:S:1:pos:R:3 gdb_92607=T pbc="F F F"
O        0.40910000       1.11340000      -0.65850000
C        0.07610000      -0.08950000      -0.00590000
C        0.04570000      -0.13870000       1.54630000
C       -1.33880000      -0.85530000       1.48860000
O       -2.42340000      -0.18240000       2.09440000
C       -2.76340000       0.91830000       1.25790000
C       -2.50120000       0.45530000      -0.18730000
C       -1.39960000      -0.61290000      -0.04670000
O       -1.61990000      -1.77390000      -0.81490000
H        0.02900000       1.84490000      -0.16140000
H        0.73410000      -0.85490000      -0.42680000
H        0.85700000      -0.68890000       2.02570000
H       -0.01880000       0.85000000       2.01200000
H       -1.34420000      -1.89550000       1.81480000
H       -3.80820000       1.17390000       1.45130000
H       -2.15460000       1.80250000       1.50890000
H       -3.38410000      -0.04280000      -0.59600000
H       -2.22120000       1.27590000      -0.85390000
H       -1.52560000      -1.53930000      -1.74480000
