12
Properties=species:S:1:pos:R:3 gdb_21609=T pbc="F F F"
N        0.00410000       1.34070000       0.11450000
C       -0.06170000      -0.00830000       0.04120000
N       -1.18490000      -0.63990000       0.02430000
C       -1.11900000      -2.02640000      -0.00180000
N       -2.11610000      -2.82720000      -0.01490000
C        0.23180000      -2.60510000      -0.02110000
N        1.32770000      -1.94920000      -0.01440000
O        1.18650000      -0.53940000       0.01990000
H        0.87710000       1.79590000      -0.09090000
H       -0.85380000       1.84340000      -0.03790000
H       -2.98140000      -2.28140000       0.00010000
H        0.34080000      -3.68500000      -0.04630000
