12
Properties=species:S:1:pos:R:3 gdb_130476=T pbc="F F F"
O       -0.03340000       1.90700000       0.01520000
C        1.12800000       2.26440000       0.00510000
C        2.24730000       1.33340000      -0.01200000
N        3.52140000       1.68410000      -0.02230000
C        4.26340000       0.52760000      -0.03710000
C        3.48510000      -0.61070000      -0.03700000
C        2.14810000      -0.10920000      -0.01990000
N        1.03070000      -0.80910000      -0.01350000
N        0.08210000      -1.40950000      -0.00380000
H        1.42540000       3.33130000       0.00810000
H        5.34360000       0.57350000      -0.04730000
H        3.78880000      -1.64580000      -0.04720000
