17
Properties=species:S:1:pos:R:3 gdb_34114=T pbc="F F F"
C       -0.02450000      -1.15490000       0.10320000
C       -0.00820000       0.04640000       0.06440000
C        0.02630000       1.47930000      -0.00940000
C       -0.85450000       2.24290000      -1.03110000
C       -0.12000000       3.57930000      -0.81760000
C        1.30130000       3.24110000      -1.34200000
C        1.37410000       2.32990000      -0.10880000
C        0.42570000       3.26630000       0.66140000
O       -0.33010000       2.19320000       1.22640000
H       -0.04280000      -2.21600000       0.14500000
H       -0.77790000       1.87150000      -2.05560000
H       -1.89500000       2.22900000      -0.70330000
H       -0.63150000       4.50380000      -1.07750000
H        1.38610000       2.80730000      -2.34230000
H        2.00140000       4.07570000      -1.24190000
H        2.27510000       1.88470000       0.30750000
H        0.69660000       4.06830000       1.34460000
