18
Properties=species:S:1:pos:R:3 gdb_81253=T pbc="F F F"
O        0.02150000       1.43070000      -0.10890000
C        0.09040000       0.04960000      -0.01530000
C        0.01670000      -0.62150000       1.37510000
N       -1.44130000      -0.11000000       1.41960000
C       -1.24460000      -0.77380000       0.05470000
C       -1.99620000      -1.34730000      -1.11380000
O       -1.10470000      -2.40180000      -1.53850000
C       -0.06950000      -2.71000000      -0.55720000
C       -0.49070000      -1.93870000       0.68730000
H       -0.66760000       1.69170000       0.52060000
H        0.85800000      -0.30190000      -0.70130000
H        0.66460000      -0.50060000       2.24470000
H       -1.99970000      -0.72180000       2.02250000
H       -2.97440000      -1.76000000      -0.82910000
H       -2.12940000      -0.65680000      -1.95240000
H       -0.07000000      -3.79320000      -0.40310000
H        0.90460000      -2.42520000      -0.96940000
H       -1.10800000      -2.54190000       1.36030000
