15
Properties=species:S:1:pos:R:3 gdb_19117=T pbc="F F F"
C       -0.03940000       1.54690000       0.03810000
C       -0.06620000       1.56800000      -1.53540000
C       -0.00850000       0.01000000      -1.53900000
C       -0.02120000      -0.02680000       0.01970000
C        1.53620000       0.01050000      -0.04270000
C        1.53430000       1.56830000       0.01460000
C        1.49280000       1.55020000      -1.54390000
N        1.52370000       0.01810000      -1.57510000
H       -0.66520000       2.15920000       0.68390000
H       -0.71080000       2.19410000      -2.15010000
H       -0.54640000      -0.65970000      -2.21050000
H       -0.62960000      -0.67530000       0.64800000
H        2.22450000      -0.65890000       0.47400000
H        2.16900000       2.19480000       0.63920000
H        2.14660000       2.10310000      -2.21890000
