19
Properties=species:S:1:pos:R:3 gdb_11030=T pbc="F F F"
C       -0.06940000       1.59110000       0.05280000
C        0.01480000       0.05810000       0.00940000
C        0.77710000      -0.48050000      -1.19120000
C        1.77100000      -1.29990000      -0.84700000
C        1.86740000      -1.43150000       0.64450000
C        2.34150000      -2.71110000       1.28170000
N        2.20110000      -0.11450000       1.26880000
C        0.78820000      -0.55730000       1.17830000
H        0.93350000       2.01770000       0.13220000
H       -0.54740000       1.98550000      -0.84980000
H       -0.65650000       1.92540000       0.91460000
H       -1.00880000      -0.34550000       0.00650000
H        0.53640000      -0.17680000      -2.20490000
H        2.45300000      -1.79620000      -1.52830000
H        3.40130000      -2.89140000       1.06630000
H        2.22200000      -2.67790000       2.36980000
H        1.77590000      -3.57110000       0.90710000
H        2.51950000      -0.28230000       2.22300000
H        0.26600000      -0.79840000       2.09920000
