9
Properties=species:S:1:pos:R:3 gdb_186=T pbc="F F F"
N       -0.08810000       1.28320000       0.00980000
C       -0.00750000       0.03120000       0.00300000
O        1.12370000      -0.75520000      -0.00780000
C        0.69550000      -2.07030000      -0.01180000
C       -0.63170000      -2.08700000      -0.00390000
O       -1.10010000      -0.78900000       0.00550000
H        0.83730000       1.70340000       0.00640000
H        1.44940000      -2.83680000      -0.02030000
H       -1.36500000      -2.87310000      -0.00340000
