25
Properties=species:S:1:pos:R:3 gdb_102320=T pbc="F F F"
C       -0.10580000       1.54380000       0.18620000
C       -0.09540000       0.02570000      -0.01850000
C        0.76730000      -0.43390000      -1.21160000
C        0.88450000      -1.97470000      -1.24800000
C        1.69810000      -2.56830000      -2.41530000
C        3.12790000      -2.01280000      -2.48070000
C        1.70740000      -4.09990000      -2.31660000
C        0.15230000       0.05420000      -2.50670000
O        0.70570000       0.72450000      -3.34090000
H        0.90430000       1.92290000       0.37430000
H       -0.49220000       2.06760000      -0.69450000
H       -0.73180000       1.82040000       1.03980000
H        0.27780000      -0.46840000       0.88640000
H       -1.12240000      -0.33870000      -0.15880000
H        1.76280000       0.01570000      -1.13570000
H        1.33080000      -2.29830000      -0.29800000
H       -0.12720000      -2.40360000      -1.26750000
H        1.19480000      -2.29760000      -3.35410000
H        3.69980000      -2.51190000      -3.26960000
H        3.13630000      -0.94110000      -2.69670000
H        3.65770000      -2.17600000      -1.53390000
H        0.69100000      -4.50780000      -2.29790000
H        2.23310000      -4.54690000      -3.16640000
H        2.21490000      -4.42930000      -1.40190000
H       -0.90720000      -0.27480000      -2.65020000
