17
Properties=species:S:1:pos:R:3 gdb_51228=T pbc="F F F"
O        0.08720000       0.68600000      -1.57130000
C        0.10080000       1.45540000      -0.63930000
N        1.17150000       1.69870000       0.18080000
C        2.40730000       1.01350000       0.11280000
C        2.97900000      -0.06770000       1.01860000
N        4.34400000       0.22560000       0.42650000
C        4.14900000      -0.24250000      -1.00930000
C        3.18480000       0.90730000      -1.21540000
C        3.79020000       1.59450000      -0.02830000
H       -0.77170000       2.07570000      -0.34970000
H        1.01840000       2.32660000       0.95630000
H        2.97180000       0.21970000       2.07420000
H        2.64370000      -1.10510000       0.91240000
H        5.08470000      -0.11720000      -1.55970000
H        3.79340000      -1.27350000      -1.10910000
H        2.77170000       1.33380000      -2.11910000
H        4.22970000       2.56190000       0.16890000
