18
Properties=species:S:1:pos:R:3 gdb_16105=T pbc="F F F"
C        0.02100000      -1.20440000      -0.27910000
C        0.02690000      -0.01260000      -0.10990000
C        0.01620000       1.40190000       0.11230000
C        0.24880000       2.34100000      -1.06400000
C        1.28740000       2.24930000       0.01770000
C        1.24990000       3.27910000       1.13480000
C       -0.23780000       3.36250000       1.55010000
C       -0.81720000       1.95760000       1.27190000
H        0.01980000      -2.25450000      -0.43370000
H        0.47880000       1.86920000      -2.01190000
H       -0.36860000       3.22980000      -1.14570000
H        2.22950000       1.77080000      -0.22370000
H        1.86270000       2.92260000       1.97110000
H        1.65060000       4.25310000       0.83310000
H       -0.36270000       3.66120000       2.59390000
H       -0.75710000       4.11350000       0.94690000
H       -1.88840000       1.98050000       1.04790000
H       -0.68080000       1.30240000       2.13910000
