21
Properties=species:S:1:pos:R:3 gdb_72450=T pbc="F F F"
O       -0.08480000       1.37890000       0.04220000
C        0.01610000      -0.02430000       0.04520000
C        0.76190000      -0.65070000      -1.16980000
C        1.06480000      -2.10620000      -0.68850000
C        0.45230000      -2.13670000       0.74320000
C        0.77110000      -0.70470000       1.21420000
C       -1.06700000      -2.10790000       0.54490000
C       -1.92960000      -1.19100000       1.37530000
C       -1.35660000      -0.69080000       0.07490000
H        0.80050000       1.74060000      -0.07270000
H        0.15550000      -0.61230000      -2.07880000
H        1.68580000      -0.09430000      -1.36920000
H        0.61720000      -2.86360000      -1.33840000
H        2.14140000      -2.30020000      -0.65590000
H        0.82580000      -2.95040000       1.36870000
H        1.84420000      -0.48830000       1.18980000
H        0.39030000      -0.44060000       2.20070000
H       -1.53030000      -2.96430000       0.06600000
H       -2.99190000      -1.41090000       1.35680000
H       -1.59040000      -0.80200000       2.32780000
H       -2.02330000      -0.48260000      -0.75470000
