21
Properties=species:S:1:pos:R:3 gdb_119094=T pbc="F F F"
C       -0.10380000       1.43390000       0.23630000
O       -0.07740000       0.02580000       0.15820000
C        0.57970000      -0.45300000      -1.00200000
C        0.69970000      -1.97280000      -0.94930000
C       -0.53710000      -2.62460000      -0.31910000
O       -1.75470000      -2.10370000      -0.82080000
C        1.22940000      -2.59670000      -2.26300000
C        2.38730000      -3.11500000      -1.39020000
O        1.88090000      -2.42550000      -0.22770000
H        0.91270000       1.85270000       0.27600000
H       -0.62770000       1.88090000      -0.62300000
H       -0.63330000       1.70070000       1.15380000
H        0.00970000      -0.16950000      -1.90220000
H        1.58750000      -0.01910000      -1.08460000
H       -0.53310000      -3.69810000      -0.53380000
H       -0.45140000      -2.50200000       0.76830000
H       -1.82910000      -1.22030000      -0.44000000
H        0.58000000      -3.34480000      -2.71980000
H        1.52560000      -1.86920000      -3.02260000
H        2.41540000      -4.20100000      -1.23840000
H        3.39130000      -2.77210000      -1.66600000
