19
Properties=species:S:1:pos:R:3 gdb_90133=T pbc="F F F"
C       -0.05300000       1.56670000      -0.03970000
C        0.09300000       0.06220000       0.03150000
O        1.16680000      -0.45460000      -0.82560000
C        1.69440000      -1.19980000       0.28120000
C        2.19580000      -0.31470000       1.36850000
C        0.70340000      -0.62340000       1.27360000
C        0.16950000      -1.80690000       2.00110000
C        0.71140000      -2.94170000       1.53230000
C        1.67170000      -2.71560000       0.36400000
H        0.85890000       2.07450000       0.28530000
H       -0.27120000       1.87860000      -1.06610000
H       -0.87970000       1.89260000       0.60060000
H       -0.84790000      -0.42920000      -0.24600000
H        2.70430000      -0.79210000       2.19840000
H        2.56190000       0.67250000       1.10580000
H       -0.54500000      -1.75790000       2.81600000
H        0.52520000      -3.93160000       1.93930000
H        1.28640000      -3.14640000      -0.56820000
H        2.65600000      -3.16540000       0.53930000
