17
Properties=species:S:1:pos:R:3 gdb_110252=T pbc="F F F"
C        0.02890000       1.29850000      -0.20030000
O       -0.02640000       0.01060000       0.39480000
C       -1.27310000      -0.62060000       0.22810000
C       -1.56770000      -1.39920000      -1.11860000
C       -0.52980000      -2.48990000      -0.60330000
O        0.83580000      -2.27080000      -0.68170000
C       -1.34130000      -2.10470000       0.70640000
C       -2.54890000      -2.17100000      -0.23780000
O       -3.65870000      -2.60530000      -0.26790000
H        1.00320000       1.72320000       0.04800000
H       -0.07740000       1.24480000      -1.29180000
H       -0.76030000       1.94870000       0.20140000
H       -2.07210000       0.04530000       0.57830000
H       -1.70120000      -1.00360000      -2.12250000
H       -0.71120000      -3.50030000      -0.97470000
H        1.00730000      -1.40250000      -0.28930000
H       -1.22320000      -2.48370000       1.71840000
