17
Properties=species:S:1:pos:R:3 gdb_87506=T pbc="F F F"
O        0.01280000       1.40950000       0.17930000
C        0.02430000       0.01320000       0.08220000
C       -0.35490000      -0.75090000       1.33340000
C       -1.26260000      -0.72990000       0.14870000
C       -2.69600000      -0.25330000      -0.09230000
O       -2.53300000      -0.60350000      -1.52580000
C       -1.93530000      -1.74560000      -0.78550000
C       -3.19650000      -1.72640000       0.11030000
O       -3.10800000      -2.36850000       1.34570000
H       -0.31430000       1.75220000      -0.65980000
H        0.82600000      -0.40260000      -0.52970000
H        0.18930000      -1.65830000       1.57160000
H       -0.64710000      -0.15520000       2.19180000
H       -3.16850000       0.69940000       0.14730000
H       -1.50530000      -2.56000000      -1.36840000
H       -4.12030000      -1.93990000      -0.43860000
H       -3.94070000      -2.24760000       1.81190000
