25
Properties=species:S:1:pos:R:3 gdb_101606=T pbc="F F F"
C        0.38210000       1.41840000       0.26380000
C       -0.05360000      -0.05450000       0.15510000
C        0.30550000      -0.79370000       1.45850000
C       -1.58190000      -0.10840000      -0.03750000
C        0.59340000      -0.73190000      -1.08250000
C        2.11490000      -0.68720000      -1.23580000
O        2.82040000      -1.42500000      -0.22470000
C        2.57210000      -1.20180000      -2.60690000
O        3.97930000      -1.22610000      -2.69190000
H        1.44850000       1.51370000       0.48980000
H        0.18230000       1.96460000      -0.66520000
H       -0.16730000       1.92090000       1.06710000
H       -0.20160000      -0.33080000       2.31240000
H       -0.01660000      -1.84140000       1.41720000
H        1.38080000      -0.77740000       1.64550000
H       -1.89200000       0.44050000      -0.93370000
H       -1.93280000      -1.14150000      -0.13990000
H       -2.09830000       0.33440000       0.82100000
H        0.27260000      -1.78480000      -1.11640000
H        0.16930000      -0.26690000      -1.98330000
H        2.48540000       0.33730000      -1.12490000
H        2.40830000      -2.29470000      -0.15780000
H        2.13900000      -2.20560000      -2.77750000
H        2.20200000      -0.54720000      -3.40370000
H        4.27650000      -1.53520000      -1.82550000
