20
Properties=species:S:1:pos:R:3 gdb_38445=T pbc="F F F"
C       -0.16130000       1.26300000       0.00860000
C        1.12620000       0.57570000      -0.18700000
C        1.77710000       0.24710000       1.15220000
C        0.47440000      -0.52460000       1.49930000
C        0.60320000      -2.04440000       1.64770000
C       -0.71270000      -2.39830000       2.33600000
O       -0.90800000      -1.34930000       3.27920000
C       -0.38940000      -0.14570000       2.72020000
N       -0.13310000      -0.20730000       0.13900000
H       -0.31890000       1.88310000       0.88870000
H       -0.70360000       1.59150000      -0.87260000
H        1.60670000       0.49880000      -1.15680000
H        2.64180000      -0.41570000       1.07570000
H        2.04690000       1.10380000       1.77830000
H        0.74750000      -2.53220000       0.68150000
H        1.44740000      -2.28570000       2.30340000
H       -1.53540000      -2.43030000       1.60500000
H       -0.69360000      -3.34390000       2.88420000
H        0.19710000       0.36460000       3.49370000
H       -1.21140000       0.51940000       2.42080000
