16
Properties=species:S:1:pos:R:3 gdb_29213=T pbc="F F F"
N        0.10690000       1.45850000       0.00460000
C        0.06720000       0.02610000      -0.02330000
C       -1.09680000      -0.77550000      -0.01920000
N       -1.14800000      -2.08350000      -0.01100000
C        0.04630000      -2.78280000      -0.02210000
N        0.19800000      -4.05340000      -0.03210000
N        1.23730000      -2.01430000      -0.02460000
H        2.08740000      -2.55760000      -0.07500000
C        1.27070000      -0.66290000      -0.02430000
N        2.47470000      -0.02520000      -0.07170000
H       -0.20500000       1.86870000      -0.87090000
H       -0.48350000       1.83740000       0.73770000
H       -2.06020000      -0.25900000      -0.01010000
H       -0.72500000      -4.48330000      -0.03090000
H        3.27650000      -0.48610000       0.32940000
H        2.39090000       0.96550000       0.11720000
