19
Properties=species:S:1:pos:R:3 gdb_96865=T pbc="F F F"
C        0.13500000       1.41440000       0.08570000
N        0.24830000      -0.03540000       0.08250000
C        0.52780000      -0.62610000      -0.99400000
O        0.77070000      -0.02080000      -2.20240000
C        0.73150000      -0.97090000      -3.29520000
C        1.88650000      -0.68640000      -4.24020000
C        0.75220000      -2.33740000      -2.62610000
N        1.92890000      -2.50280000      -1.76100000
C        0.62010000      -2.10050000      -1.17110000
H        1.06220000       1.85540000       0.47280000
H       -0.05720000       1.84670000      -0.90340000
H       -0.66820000       1.70630000       0.76970000
H       -0.22970000      -0.84000000      -3.81070000
H        2.83460000      -0.87280000      -3.73150000
H        1.82080000      -1.33380000      -5.12080000
H        1.85710000       0.35340000      -4.57570000
H        0.30930000      -3.18960000      -3.12900000
H        2.06820000      -3.49340000      -1.57300000
H        0.10750000      -2.75500000      -0.47920000
