16
Properties=species:S:1:pos:R:3 gdb_125215=T pbc="F F F"
C        0.05210000       1.48440000      -0.00650000
C       -0.04640000      -0.01370000      -0.01210000
C       -1.20610000      -0.71550000       0.07140000
C       -1.21450000      -2.16120000       0.05930000
N       -2.29290000      -2.86130000       0.13690000
C        0.15080000      -2.71660000      -0.05140000
O        0.22980000      -4.06270000      -0.06930000
N        1.24780000      -2.04150000      -0.13020000
N        1.13650000      -0.68860000      -0.10950000
H        0.65490000       1.83930000       0.83740000
H        0.51930000       1.85490000      -0.92630000
H       -0.94070000       1.92840000       0.07370000
H       -2.15480000      -0.20040000       0.14920000
H       -2.06160000      -3.85500000       0.11030000
H        1.16540000      -4.29520000      -0.14350000
H        2.01550000      -0.20500000      -0.17330000
