18
Properties=species:S:1:pos:R:3 gdb_47423=T pbc="F F F"
N       -0.16910000       1.31300000      -0.04000000
C       -0.08920000       0.05870000      -0.12120000
O        1.05900000      -0.67230000      -0.22120000
C        0.70970000      -2.05680000      -0.21920000
O       -0.64920000      -2.14150000      -0.54290000
C       -1.25930000      -0.91260000      -0.13020000
C       -1.96000000      -1.01650000       1.20400000
C       -3.10480000      -0.08310000       1.50080000
C       -3.37090000      -1.54580000       1.25760000
H        0.75830000       1.74010000      -0.03930000
H        1.29980000      -2.57580000      -0.98020000
H        0.92700000      -2.47070000       0.77840000
H       -1.97900000      -0.62680000      -0.90350000
H       -1.30820000      -1.26840000       2.03610000
H       -3.19440000       0.30210000       2.50960000
H       -3.38540000       0.62690000       0.73090000
H       -3.83780000      -1.83280000       0.32120000
H       -3.64750000      -2.16960000       2.09980000
