23
Properties=species:S:1:pos:R:3 gdb_63589=T pbc="F F F"
C       -0.17470000       1.51450000       0.15710000
C       -0.02050000       0.01150000       0.08740000
O       -1.21080000      -0.65310000      -0.26320000
C        1.27890000      -0.60260000      -0.37690000
C        0.84570000      -0.73540000       1.07290000
C        1.58150000       0.00270000       2.20570000
C        1.80920000      -1.07170000       3.28760000
C        0.58230000      -1.98550000       3.14300000
C        0.40580000      -2.10380000       1.61860000
H        0.75810000       2.00630000       0.44480000
H       -0.47150000       1.91460000      -0.82040000
H       -0.94960000       1.79120000       0.88010000
H       -1.38420000      -0.47530000      -1.19400000
H        1.20890000      -1.49190000      -0.99670000
H        2.11210000       0.05400000      -0.61280000
H        2.51340000       0.46980000       1.87190000
H        0.95060000       0.80280000       2.61210000
H        2.72040000      -1.64100000       3.06530000
H        1.92530000      -0.64800000       4.28940000
H        0.70240000      -2.95500000       3.63490000
H       -0.29520000      -1.49930000       3.58720000
H       -0.61150000      -2.35670000       1.31580000
H        1.06710000      -2.88870000       1.23060000
