18
Properties=species:S:1:pos:R:3 gdb_83829=T pbc="F F F"
O       -0.13810000       1.42090000      -0.18120000
C        0.00170000       0.03850000      -0.02450000
C       -0.36290000      -0.62890000       1.29050000
C       -0.90550000       0.19040000       2.42790000
O       -2.03050000      -0.43490000       3.07370000
C       -3.18490000      -0.63490000       2.38090000
N       -3.51430000      -0.50490000       1.17070000
C       -2.61810000      -0.07900000       0.09790000
C       -1.26050000      -0.76710000       0.07130000
H        0.63970000       1.84740000       0.19360000
H        0.83080000      -0.39640000      -0.58130000
H        0.22010000      -1.49810000       1.57960000
H       -0.16780000       0.30070000       3.22740000
H       -1.18790000       1.19170000       2.09110000
H       -3.93270000      -0.98550000       3.09370000
H       -3.12970000      -0.29200000      -0.84640000
H       -2.49040000       1.00790000       0.12350000
H       -1.24850000      -1.73390000      -0.42190000
