21
Properties=species:S:1:pos:R:3 gdb_101039=T pbc="F F F"
C        0.21260000       1.22540000      -0.37970000
O        0.07350000      -0.15200000      -0.11480000
C       -1.24820000      -0.57160000       0.19370000
C       -2.18760000      -0.55250000      -1.01710000
C       -1.10180000      -1.96460000       0.79240000
C       -0.32520000      -2.99450000      -0.02060000
O       -0.43050000      -4.28470000       0.54250000
C       -1.21880000      -2.14990000       2.24190000
O       -2.31370000      -2.48400000       1.36370000
H        1.28220000       1.42550000      -0.47810000
H       -0.28600000       1.52990000      -1.31060000
H       -0.18810000       1.83740000       0.44360000
H       -1.67200000       0.08570000       0.97080000
H       -1.76030000      -1.10560000      -1.85800000
H       -3.14300000      -1.00800000      -0.74260000
H       -2.38560000       0.47070000      -1.34730000
H       -0.68490000      -2.98330000      -1.06130000
H        0.73270000      -2.72050000      -0.03730000
H       -1.36730000      -4.40410000       0.74790000
H       -0.73510000      -3.00400000       2.70770000
H       -1.39280000      -1.28730000       2.88200000
