21
Properties=species:S:1:pos:R:3 gdb_86912=T pbc="F F F"
O       -0.32990000       1.47940000       0.04910000
C       -0.14950000       0.08240000       0.02680000
C        0.32560000      -0.64010000       1.31940000
C       -0.73980000      -1.73580000       1.03350000
C       -1.50960000      -2.33490000       2.20670000
C       -2.57790000      -3.30820000       1.76930000
C       -3.86190000      -3.44200000       2.46750000
O       -3.77660000      -2.74800000       1.22170000
C       -1.46030000      -0.72270000       0.09680000
H        0.53440000       1.89790000      -0.01470000
H        0.45850000      -0.22530000      -0.83680000
H        1.37400000      -0.94010000       1.40080000
H        0.05070000      -0.04190000       2.19460000
H       -0.29370000      -2.54350000       0.44050000
H       -0.81270000      -2.85780000       2.87690000
H       -1.97640000      -1.53260000       2.79100000
H       -2.21510000      -4.17850000       1.21710000
H       -4.40120000      -4.38800000       2.44120000
H       -4.06550000      -2.81770000       3.33700000
H       -2.21540000      -0.15160000       0.64450000
H       -1.89880000      -1.08680000      -0.83390000
