15
Properties=species:S:1:pos:R:3 gdb_12362=T pbc="F F F"
O        0.07610000       1.35960000       0.19980000
C        0.02200000      -0.02480000       0.01990000
C       -1.42570000      -0.51400000       0.01880000
N       -1.43840000      -1.94800000      -0.25920000
C       -0.63640000      -2.43060000      -1.24270000
C        0.39040000      -1.73180000      -1.80140000
C        0.71790000      -0.41920000      -1.29770000
O        1.50650000       0.37560000      -1.79270000
H        0.74520000       1.65190000      -0.44470000
H        0.56270000      -0.55580000       0.82640000
H       -1.89520000      -0.32560000       0.98720000
H       -1.98570000       0.04040000      -0.75070000
H       -2.28860000      -2.45100000      -0.06590000
H       -0.86650000      -3.44130000      -1.56790000
H        0.97190000      -2.15540000      -2.60930000
