21
Properties=species:S:1:pos:R:3 gdb_86457=T pbc="F F F"
C       -0.07890000       1.54210000       0.00610000
C        0.02980000       0.01770000      -0.01710000
C        0.72200000      -0.49210000      -1.28030000
N        0.93130000      -1.92680000      -1.18300000
C        1.32900000      -2.52840000      -2.44410000
C        1.87350000      -2.24060000      -0.11800000
C        1.56600000      -1.55910000       1.21170000
O        2.05280000      -1.95810000       2.25320000
N        0.77290000      -0.45100000       1.14790000
H        0.91220000       2.00460000      -0.03350000
H       -0.66600000       1.89760000      -0.84620000
H       -0.57870000       1.88460000       0.91830000
H       -0.98320000      -0.41180000      -0.00300000
H        0.08010000      -0.28380000      -2.14200000
H        1.67110000       0.06220000      -1.43310000
H        2.29890000      -2.14980000      -2.82020000
H        1.41740000      -3.61260000      -2.32270000
H        0.56790000      -2.33220000      -3.20570000
H        1.88080000      -3.31750000       0.07060000
H        2.91340000      -1.95610000      -0.38080000
H        0.55470000      -0.04850000       2.04920000
