13
Properties=species:S:1:pos:R:3 gdb_23949=T pbc="F F F"
C        0.11440000      -1.19100000      -0.00530000
C        0.02020000       0.00980000       0.00270000
C       -0.07460000       1.41210000       0.01180000
C       -1.18890000       2.25590000       0.03190000
C       -0.71310000       3.59850000       0.03280000
C        0.65850000       3.54300000       0.01340000
N        1.03070000       2.22600000       0.00100000
C       -2.54030000       1.83660000       0.04830000
N       -3.65150000       1.50960000       0.06190000
H        0.17830000      -2.25120000      -0.01190000
H       -1.32320000       4.48680000       0.04610000
H        1.39560000       4.32900000       0.00760000
H        1.97550000       1.88020000      -0.01410000
