22
Properties=species:S:1:pos:R:3 gdb_58357=T pbc="F F F"
C       -0.17340000       1.42040000      -0.07930000
C        0.13070000      -0.07380000       0.10280000
C        0.88050000      -0.65410000      -1.10190000
C        0.87880000      -0.36720000       1.43370000
C        2.15310000       0.45970000       1.54900000
O        3.18590000       0.19590000       0.98750000
N        0.02700000      -0.04650000       2.57540000
C       -0.89820000      -1.08540000       3.01220000
C        0.30730000      -0.75910000       3.82130000
H        0.74190000       1.99400000      -0.26630000
H       -0.83350000       1.57290000      -0.93870000
H       -0.66040000       1.83260000       0.80800000
H       -0.82760000      -0.60250000       0.19580000
H        1.87520000      -0.21100000      -1.20340000
H        1.00950000      -1.73770000      -1.00970000
H        0.32410000      -0.45910000      -2.02440000
H        1.18240000      -1.42950000       1.42390000
H        2.05470000       1.35670000       2.19990000
H       -1.88110000      -0.74440000       3.32370000
H       -0.89390000      -2.03190000       2.47370000
H        1.11660000      -1.48760000       3.82240000
H        0.22110000      -0.17220000       4.73080000
