17
Properties=species:S:1:pos:R:3 gdb_98070=T pbc="F F F"
C       -0.26640000       1.45030000       0.08560000
C       -0.09530000      -0.07230000      -0.07970000
O        0.58730000      -0.37550000      -1.26800000
C        0.64940000      -0.66350000       1.10510000
O        1.75270000      -1.15050000       0.97970000
C       -0.02140000      -0.65820000       2.48660000
O       -1.16950000      -0.29710000       2.62870000
C        0.79820000      -1.14440000       3.66140000
O        0.06770000      -1.09740000       4.84930000
H        0.70820000       1.93630000       0.19200000
H       -0.74390000       1.83940000      -0.81640000
H       -0.89090000       1.68740000       0.94940000
H       -1.09540000      -0.53080000      -0.09890000
H        1.43750000      -0.75990000      -1.00760000
H        1.14720000      -2.16430000       3.43480000
H        1.70990000      -0.52770000       3.71950000
H       -0.81160000      -0.76490000       4.61460000
