21
Properties=species:S:1:pos:R:3 gdb_101642=T pbc="F F F"
C       -0.10370000       1.67200000      -0.61420000
C        0.12030000       0.20240000      -0.26190000
N        0.77910000      -0.56280000      -1.33010000
C        2.18760000      -0.20810000      -1.48770000
C        0.58050000      -2.00340000      -1.19030000
C       -0.79380000      -2.38610000      -1.80090000
O       -0.94430000      -1.78810000      -3.06490000
C       -0.89430000      -3.84820000      -1.92600000
N       -0.95970000      -5.00000000      -1.98140000
H        0.83570000       2.21860000      -0.73340000
H       -0.67270000       1.76300000      -1.54410000
H       -0.66790000       2.16300000       0.18420000
H        0.69500000       0.12140000       0.67900000
H       -0.85220000      -0.26190000      -0.07010000
H        2.78470000      -0.42230000      -0.58400000
H        2.61640000      -0.76560000      -2.32440000
H        2.28440000       0.85620000      -1.71310000
H        1.35400000      -2.51780000      -1.76600000
H        0.64690000      -2.35680000      -0.14900000
H       -1.60060000      -2.07070000      -1.11820000
H       -0.43760000      -0.96080000      -2.97870000
