17
Properties=species:S:1:pos:R:3 gdb_47678=T pbc="F F F"
N       -0.09680000       1.35540000      -0.18870000
C       -0.06620000       0.10260000      -0.07670000
C       -1.29130000      -0.75360000       0.05040000
C       -1.47370000      -1.70450000      -1.14380000
C       -0.26010000      -2.60350000      -1.39490000
N        0.91480000      -1.88130000      -1.88500000
C        1.74210000      -1.10800000      -1.11920000
O        2.89210000      -0.87020000      -1.37080000
O        1.14490000      -0.60430000       0.02380000
H        0.85110000       1.73460000      -0.24190000
H       -1.19650000      -1.34330000       0.97110000
H       -2.15590000      -0.09570000       0.15160000
H       -2.34470000      -2.34160000      -0.95520000
H       -1.68180000      -1.12530000      -2.05000000
H       -0.01370000      -3.16230000      -0.48150000
H       -0.50980000      -3.33930000      -2.16350000
H        1.40000000      -2.28140000      -2.67320000
