15
Properties=species:S:1:pos:R:3 gdb_29991=T pbc="F F F"
O        0.22300000       1.42380000      -0.20430000
C        0.03630000       0.02820000      -0.03990000
C        0.60400000      -0.54530000       1.27140000
C       -0.30450000      -1.30600000       1.91270000
C       -1.51840000      -1.25800000       1.11040000
C       -1.38810000      -0.48120000       0.00010000
C       -2.64490000      -0.54290000      -0.67050000
C       -3.42900000      -1.35120000       0.10540000
O       -2.74500000      -1.80580000       1.20910000
H       -0.26860000       1.86040000       0.50030000
H        0.57860000      -0.42980000      -0.87870000
H        1.61720000      -0.33780000       1.58890000
H       -0.17330000      -1.84570000       2.84060000
H       -2.95040000      -0.06140000      -1.58660000
H       -4.44940000      -1.68740000       0.02780000
