19
Properties=species:S:1:pos:R:3 gdb_91100=T pbc="F F F"
O       -0.17740000       1.33510000       0.93280000
C       -0.03460000       0.13360000       0.22610000
C        0.51920000      -1.08600000       1.02920000
C       -0.88050000      -1.76540000       0.96350000
C       -1.78130000      -1.56140000       2.16500000
O       -1.74810000      -0.21660000       2.69610000
C       -2.84730000      -0.59580000       1.84510000
C       -2.69910000      -0.10470000       0.41600000
C       -1.35210000      -0.68130000      -0.06250000
H       -0.62350000       1.11000000       1.76430000
H        0.53550000       0.38000000      -0.67360000
H        1.28720000      -1.64450000       0.48830000
H        0.89690000      -0.84510000       2.02580000
H       -0.90190000      -2.81110000       0.64620000
H       -1.89330000      -2.33220000       2.92310000
H       -3.81610000      -0.59820000       2.33850000
H       -3.53430000      -0.48210000      -0.18420000
H       -2.71490000       0.98860000       0.36180000
H       -1.39570000      -1.02460000      -1.09800000
