21
Properties=species:S:1:pos:R:3 gdb_37470=T pbc="F F F"
C       -0.03130000       1.44600000      -0.09390000
C        1.31610000       0.79060000       0.05130000
C        0.03740000      -0.04360000       0.09770000
C        0.43270000      -0.75980000      -1.19970000
C       -0.49330000      -0.71620000      -2.41920000
O       -0.34400000       0.47120000      -3.18650000
C        0.98960000       0.62340000      -3.64500000
C        1.92890000       1.02950000      -2.50370000
C        1.74450000       0.12390000      -1.26860000
H       -0.36220000       2.00300000       0.77710000
H       -0.35430000       1.86160000      -1.04280000
H        1.98820000       1.04920000       0.86100000
H       -0.42480000      -0.53060000       0.94850000
H        0.69660000      -1.80030000      -0.99020000
H       -0.29780000      -1.58680000      -3.06900000
H       -1.54450000      -0.75380000      -2.11530000
H        1.33030000      -0.31550000      -4.11480000
H        0.96520000       1.39370000      -4.42180000
H        2.96500000       1.00930000      -2.86050000
H        1.70750000       2.06670000      -2.23150000
H        2.62270000      -0.50950000      -1.12530000
