20
Properties=species:S:1:pos:R:3 gdb_100193=T pbc="F F F"
C       -0.04850000       1.56670000       0.20840000
C        0.07760000       0.04550000       0.10310000
C        0.80600000      -0.54820000       1.31980000
O        0.05570000      -0.22600000       2.47900000
C       -1.31280000      -0.61020000       0.03800000
O       -2.34990000      -0.01850000      -0.08890000
N        0.75990000      -0.51420000      -1.07920000
C        0.78200000       0.20780000      -2.34390000
C        2.02700000       0.04060000      -1.54240000
H        0.91960000       2.06140000       0.08380000
H       -0.75350000       1.95690000      -0.52760000
H       -0.43020000       1.82060000       1.19900000
H        0.89110000      -1.63520000       1.17650000
H        1.82530000      -0.13490000       1.36470000
H        0.46600000      -0.65150000       3.23700000
H       -1.27000000      -1.72120000       0.07350000
H        0.60680000      -0.39920000      -3.22770000
H        0.35680000       1.20680000      -2.38740000
H        2.42240000       0.93060000      -1.05790000
H        2.77870000      -0.69060000      -1.82720000
