21
Properties=species:S:1:pos:R:3 gdb_75880=T pbc="F F F"
C        0.33030000       1.45510000       0.04440000
C       -0.02820000      -0.03960000      -0.01100000
C       -1.54760000      -0.21850000       0.00770000
C        0.63480000      -0.73030000      -1.24130000
C        2.10940000      -0.98620000      -0.84980000
C        2.10800000      -0.90610000       0.67140000
O        3.05440000      -0.83960000       1.41850000
C        0.66540000      -0.79590000       1.14850000
O        0.56690000      -0.21820000       2.41790000
H        1.41070000       1.62510000      -0.02240000
H       -0.14250000       1.99260000      -0.78390000
H       -0.01090000       1.89290000       0.98540000
H       -2.01100000       0.26560000      -0.85920000
H       -1.82180000      -1.27910000      -0.01290000
H       -1.98010000       0.22370000       0.91080000
H        0.12820000      -1.68050000      -1.44170000
H        0.53920000      -0.12080000      -2.14360000
H        2.49350000      -1.95390000      -1.18660000
H        2.79830000      -0.22780000      -1.23430000
H        0.25900000      -1.82700000       1.15820000
H        1.46690000      -0.23120000       2.77920000
