17
Properties=species:S:1:pos:R:3 gdb_48496=T pbc="F F F"
O       -0.10740000       0.09230000       0.22790000
C        0.07710000       1.25580000      -0.04940000
C        1.36700000       1.93210000       0.01370000
C        1.51130000       3.41210000       0.47350000
C        1.88810000       3.03570000      -0.92010000
C        3.30180000       2.67860000      -0.36990000
C        2.96110000       3.35590000       1.01420000
C        3.15000000       1.99830000       1.73260000
C        2.76390000       1.38840000       0.36440000
H       -0.76040000       1.90720000      -0.39680000
H        0.66000000       3.97770000       0.82980000
H        1.50420000       3.34700000      -1.88250000
H        4.25490000       2.75380000      -0.88550000
H        3.41110000       4.28490000       1.36110000
H        4.20270000       1.81800000       1.97210000
H        2.52450000       1.76940000       2.60020000
H        3.00130000       0.36730000       0.07460000
