19
Properties=species:S:1:pos:R:3 gdb_39394=T pbc="F F F"
C       -0.04760000       1.52830000      -0.02110000
C        1.27110000       0.74140000      -0.07610000
C        2.31010000       0.42160000       0.96230000
O        2.40340000      -1.00450000       1.18780000
C        1.77660000      -1.91720000       0.28550000
C        0.21710000      -1.88290000       0.24200000
C       -0.30380000      -0.87330000       1.27640000
C       -0.04570000       0.05260000       0.09380000
O       -0.28960000      -1.01530000      -0.83510000
H       -0.32120000       2.07430000       0.87790000
H       -0.33900000       2.01390000      -0.94600000
H        1.62840000       0.65650000      -1.09890000
H        3.30150000       0.78750000       0.66600000
H        2.07040000       0.86770000       1.93530000
H        2.15000000      -1.81170000      -0.74300000
H        2.09390000      -2.89690000       0.65670000
H       -0.21580000      -2.88280000       0.16120000
H       -1.37370000      -0.98840000       1.46160000
H        0.25430000      -0.74330000       2.20140000
