18
Properties=species:S:1:pos:R:3 gdb_53969=T pbc="F F F"
C       -0.02450000       1.64340000       0.02730000
C        0.02390000       0.11270000       0.07840000
N        0.72640000      -0.42010000       1.26290000
H        1.43450000       0.23700000       1.57680000
H        0.07570000      -0.54090000       2.03420000
H        1.55910000      -1.53960000       0.03450000
C       -1.40900000      -0.49780000       0.03290000
C       -2.20820000      -0.16750000       1.20540000
C       -2.83010000       0.09790000       2.20020000
C        0.73530000      -0.43100000      -1.19150000
O        1.58000000      -1.43650000      -0.94560000
O        0.50860000      -0.00940000      -2.29510000
H        0.98370000       2.06150000       0.12080000
H       -0.43330000       1.97700000      -0.92830000
H       -0.64100000       2.03240000       0.84220000
H       -1.89480000      -0.14540000      -0.88200000
H       -1.32700000      -1.58860000      -0.05270000
H       -3.40660000       0.33260000       3.06100000
