16
Properties=species:S:1:pos:R:3 gdb_98110=T pbc="F F F"
C       -0.03670000       1.57410000       0.04080000
C        0.01710000       0.05090000      -0.03130000
C        0.72290000      -0.46410000      -1.26090000
O        1.20880000       0.23090000      -2.12320000
C        0.81740000      -2.00400000      -1.40340000
O        0.35150000      -2.74100000      -0.57580000
C        1.54380000      -2.47310000      -2.66880000
C        1.61930000      -3.92220000      -2.78240000
N        1.68670000      -5.07000000      -2.88570000
H        0.96870000       2.00290000       0.04980000
H       -0.56110000       1.99020000      -0.82350000
H       -0.55670000       1.89430000       0.94700000
H        0.51790000      -0.38660000       0.84250000
H       -0.98440000      -0.39920000      -0.01460000
H        1.03890000      -2.04320000      -3.54150000
H        2.54740000      -2.03240000      -2.67950000
