15
Properties=species:S:1:pos:R:3 gdb_12872=T pbc="F F F"
C       -0.05550000       1.48170000      -0.06700000
C        0.01570000      -0.01340000       0.08490000
N       -1.20150000      -0.76060000      -0.18150000
C       -1.19150000      -1.75290000       0.61810000
O       -0.17670000      -1.87340000       1.50250000
C        0.70900000      -0.80690000       1.20410000
C        1.27880000      -0.80730000      -0.19510000
O        1.26630000      -1.97150000      -0.95200000
H        0.90550000       1.94480000       0.17500000
H       -0.31430000       1.74920000      -1.09650000
H       -0.81780000       1.90500000       0.59460000
H       -1.94070000      -2.53290000       0.67520000
H        1.23340000      -0.43080000       2.07310000
H        2.17870000      -0.20590000      -0.31500000
H        0.52910000      -1.91420000      -1.57150000
