17
Properties=species:S:1:pos:R:3 gdb_121085=T pbc="F F F"
O       -0.29770000       1.39500000      -0.18450000
C       -0.04580000      -0.00010000      -0.15550000
C       -1.38890000      -0.69660000       0.03360000
C       -1.26190000      -2.20390000       0.18730000
O       -2.52150000      -2.82630000       0.38440000
C       -2.89300000      -3.47020000      -0.81530000
C       -1.62300000      -3.51630000      -1.65250000
O       -1.42460000      -4.06310000      -2.69420000
O       -0.68760000      -2.78710000      -0.98790000
H        0.52980000       1.84590000      -0.37570000
H        0.42370000      -0.34790000      -1.08660000
H        0.63120000      -0.26760000       0.67340000
H       -1.87480000      -0.30710000       0.93440000
H       -2.04370000      -0.47270000      -0.81590000
H       -0.61490000      -2.46890000       1.03230000
H       -3.25520000      -4.48140000      -0.60770000
H       -3.67590000      -2.92460000      -1.36030000
