23
Properties=species:S:1:pos:R:3 gdb_111100=T pbc="F F F"
C       -0.25320000       1.77870000       0.34270000
C        0.00080000       0.26650000       0.27760000
C       -1.29280000      -0.51620000       0.08820000
C       -2.00190000      -0.70770000      -1.27800000
C       -0.96330000      -1.42260000      -2.17080000
C       -0.57310000      -2.56120000      -1.16780000
C        0.91260000      -2.81020000      -0.91350000
C       -1.44280000      -2.06250000       0.01250000
O       -2.71500000      -1.83660000      -0.67960000
H        0.67940000       2.33230000       0.48740000
H       -0.71650000       2.14290000      -0.58070000
H       -0.92500000       2.03130000       1.17010000
H        0.71180000       0.05950000      -0.52730000
H        0.48610000      -0.06140000       1.20610000
H       -2.04530000      -0.16320000       0.80040000
H       -2.65350000       0.04340000      -1.72620000
H       -1.41850000      -1.80330000      -3.08740000
H       -0.12120000      -0.78030000      -2.44770000
H       -1.02240000      -3.50060000      -1.50470000
H        1.44350000      -1.92110000      -0.56510000
H        1.05090000      -3.59350000      -0.15950000
H        1.40700000      -3.15050000      -1.82960000
H       -1.52390000      -2.69250000       0.90010000
