18
Properties=species:S:1:pos:R:3 gdb_105976=T pbc="F F F"
C       -0.26860000       1.32110000       0.06530000
O        0.21000000      -0.01330000      -0.07100000
C        0.79440000      -0.50000000       1.05370000
C        0.23870000      -0.95430000       2.38520000
C        0.90800000      -1.96080000       1.46300000
C        2.24440000      -1.63300000       2.18820000
C        3.39560000      -2.47700000       2.61580000
C        2.14390000      -0.20090000       1.78740000
N        1.55050000      -0.65080000       3.10180000
H        0.55120000       2.01890000       0.28040000
H       -0.72770000       1.58970000      -0.88790000
H       -1.01400000       1.39360000       0.86730000
H       -0.74140000      -0.93300000       2.84460000
H        0.51650000      -2.83560000       0.96370000
H        3.93350000      -2.87990000       1.75050000
H        4.09490000      -1.87920000       3.20880000
H        3.05980000      -3.31800000       3.23260000
H        2.88830000       0.58590000       1.73150000
