22
Properties=species:S:1:pos:R:3 gdb_103878=T pbc="F F F"
C        0.38550000       1.48230000       0.30400000
C       -0.15510000       0.11300000      -0.13040000
C        0.56630000      -0.48060000      -1.33480000
C        0.44150000       0.33160000      -2.61380000
C        1.87130000      -1.21270000      -1.10380000
C        0.64250000      -1.98500000      -1.52070000
C       -0.01760000      -2.98480000      -0.58080000
C        0.61560000      -4.30360000      -0.65460000
N        1.12010000      -5.34080000      -0.72550000
H        1.45620000       1.42860000       0.52720000
H        0.24380000       2.24080000      -0.47110000
H       -0.12900000       1.83210000       1.20400000
H       -0.08190000      -0.56960000       0.72290000
H       -1.22590000       0.20190000      -0.35960000
H        0.88870000       1.32500000      -2.50570000
H        0.94710000      -0.16460000      -3.44770000
H       -0.60990000       0.46790000      -2.89380000
H        2.67680000      -1.09590000      -1.82080000
H        2.20910000      -1.33090000      -0.07820000
H        0.62380000      -2.31760000      -2.55480000
H        0.02930000      -2.64760000       0.45880000
H       -1.08090000      -3.10310000      -0.82350000
