21
Properties=species:S:1:pos:R:3 gdb_90706=T pbc="F F F"
C       -0.26870000       1.43470000      -0.08360000
C        0.12710000      -0.02970000      -0.05870000
O        1.37400000      -0.27070000      -0.76220000
C        2.06220000      -0.64250000       0.45420000
C        0.73820000      -0.57900000       1.25960000
C        0.43880000      -2.02170000       1.55700000
C        1.39900000      -2.83660000       1.11970000
C        2.56410000      -2.10580000       0.48130000
C        2.97900000      -2.64600000      -0.89370000
H        0.50850000       2.06030000       0.36680000
H       -0.42190000       1.76890000      -1.11450000
H       -1.20260000       1.58860000       0.46890000
H       -0.67490000      -0.65230000      -0.47610000
H        2.84970000       0.08120000       0.69130000
H        0.66910000       0.08970000       2.12180000
H       -0.47490000      -2.33870000       2.04860000
H        1.38100000      -3.91870000       1.20580000
H        3.43830000      -2.16630000       1.14750000
H        2.15870000      -2.54910000      -1.60810000
H        3.83750000      -2.09410000      -1.28960000
H        3.26210000      -3.70120000      -0.82380000
