21
Properties=species:S:1:pos:R:3 gdb_64376=T pbc="F F F"
C        0.27110000       1.58900000      -0.16420000
C       -0.02300000       0.10010000       0.03700000
O       -1.41760000      -0.13070000       0.17160000
C        0.62340000      -0.75110000      -1.07570000
O        1.99340000      -0.84550000      -0.72080000
C        2.08840000      -0.89280000       0.70750000
C        0.72180000      -0.47610000       1.24840000
C        0.52610000       0.03080000       2.64770000
C        0.00040000      -1.32950000       2.25750000
H        1.34270000       1.75290000      -0.30650000
H       -0.24120000       1.96660000      -1.05850000
H       -0.06150000       2.17270000       0.69840000
H       -1.87600000       0.44760000      -0.44570000
H        0.13070000      -1.73550000      -1.09960000
H        0.56600000      -0.29980000      -2.07160000
H        2.36180000      -1.90520000       1.03790000
H        2.89240000      -0.20990000       1.00870000
H        1.39330000       0.08780000       3.29840000
H       -0.20170000       0.82090000       2.80410000
H       -1.07080000      -1.44070000       2.14640000
H        0.51970000      -2.20600000       2.63280000
