18
Properties=species:S:1:pos:R:3 gdb_85773=T pbc="F F F"
C       -0.68710000       1.30870000       0.09810000
C        0.03230000      -0.02590000      -0.03740000
C        1.03950000      -0.21000000      -1.21910000
N        2.06810000      -0.50960000      -0.21390000
C        3.42040000      -0.74090000      -0.42330000
N        4.11520000      -1.08160000       0.72400000
O        3.92690000      -0.62260000      -1.51880000
C        1.22970000      -0.24590000       0.88670000
N        1.36340000      -0.14560000       2.13810000
H        0.01410000       2.14500000       0.01310000
H       -1.45130000       1.42240000      -0.67710000
H       -1.17320000       1.37790000       1.07500000
H       -0.67640000      -0.85690000       0.02690000
H        0.84700000      -1.03580000      -1.90760000
H        1.24990000       0.70090000      -1.78610000
H        3.62290000      -1.61700000       1.42400000
H        5.05320000      -1.40160000       0.53220000
H        2.32900000      -0.26520000       2.44380000
