19
Properties=species:S:1:pos:R:3 gdb_75636=T pbc="F F F"
C       -0.04600000       1.60830000       0.06750000
C       -0.00230000       0.08890000      -0.01880000
C        1.04810000      -0.59400000      -0.95060000
O        1.20140000      -0.62800000      -2.13640000
C        1.67090000      -1.34110000       0.22690000
C        2.44570000      -2.61430000       0.26430000
O        2.02540000      -0.27280000       1.14930000
C        0.66200000      -0.70720000       1.12880000
C        0.04200000      -1.20670000       2.39250000
H        0.91850000       1.99750000       0.40290000
H       -0.26720000       2.03750000      -0.91440000
H       -0.82020000       1.94740000       0.76380000
H       -0.98620000      -0.32450000      -0.27850000
H        3.44550000      -2.46700000      -0.15650000
H        2.55680000      -2.97120000       1.29190000
H        1.94270000      -3.38530000      -0.32730000
H       -0.20700000      -0.37230000       3.05730000
H       -0.88190000      -1.75350000       2.17880000
H        0.72970000      -1.86850000       2.92560000
