15
Properties=species:S:1:pos:R:3 gdb_12457=T pbc="F F F"
O       -0.02520000      -0.08180000      -0.15570000
C       -0.02070000       1.10770000       0.03370000
N       -1.18900000       1.79310000       0.34800000
C       -1.55460000       3.13450000       0.16870000
C       -0.78460000       4.21350000       0.01650000
C        0.71380000       4.24980000       0.05360000
C        1.31060000       3.01690000       0.71640000
O        1.11780000       1.82390000      -0.05970000
H       -1.95680000       1.14160000       0.40260000
H       -2.63350000       3.24910000       0.16160000
H       -1.30200000       5.15570000      -0.12910000
H        1.13870000       4.35240000      -0.95440000
H        1.04810000       5.13440000       0.61250000
H        2.39540000       3.11070000       0.80200000
H        0.89570000       2.87440000       1.72020000
