16
Properties=species:S:1:pos:R:3 gdb_71590=T pbc="F F F"
O       -0.07780000       1.34800000       0.00500000
C        0.03210000      -0.02300000       0.02650000
C        0.63020000      -0.96360000       1.10680000
C        0.03800000      -1.90430000       0.02900000
C       -1.19520000      -0.96190000      -0.01480000
O       -1.97930000      -0.95770000      -1.20330000
C       -1.23490000      -0.95030000      -2.33130000
N        0.03150000      -0.96290000      -2.37450000
C        0.65180000      -0.97080000      -1.06800000
H        0.77710000       1.72620000      -0.22810000
H        1.71920000      -0.96890000       1.19480000
H        0.14220000      -0.96330000       2.08480000
H        0.03110000      -2.99010000       0.01920000
H       -1.88950000      -0.95720000       0.82510000
H       -1.85550000      -0.93590000      -3.22300000
H        1.74120000      -0.97560000      -1.14490000
