17
Properties=species:S:1:pos:R:3 gdb_98952=T pbc="F F F"
C        0.02760000       1.49830000       0.23480000
C        0.30470000       0.02070000      -0.02750000
C        0.79630000      -0.26660000      -1.43010000
N        0.95860000       0.64440000      -2.29490000
N        1.04260000      -1.64760000      -1.63820000
C        1.48890000      -2.24270000      -2.77780000
O        1.76260000      -1.70690000      -3.83570000
C        1.63650000      -3.76100000      -2.62600000
O        1.38290000      -4.34970000      -1.60720000
H        0.92990000       2.09530000       0.08540000
H       -0.73060000       1.87950000      -0.45260000
H       -0.32330000       1.64120000       1.26070000
H        1.05130000      -0.36290000       0.68240000
H       -0.60090000      -0.57770000       0.14730000
H        1.29470000       0.26090000      -3.17870000
H        0.87770000      -2.29080000      -0.87290000
H        1.99900000      -4.25160000      -3.54950000
