20
Properties=species:S:1:pos:R:3 gdb_113676=T pbc="F F F"
C       -0.33590000       1.59430000       0.55710000
C       -0.11750000       0.08450000       0.61690000
N       -1.27000000      -0.59440000       0.01280000
C       -1.24630000      -0.87290000      -1.39970000
C       -1.17670000      -2.00510000      -0.41150000
C        0.08450000      -2.79120000      -0.31920000
O        1.18810000      -2.36090000      -0.60460000
C       -0.04010000      -4.22550000       0.17600000
O        1.19510000      -4.87010000       0.18640000
H        0.49000000       2.11600000       1.04980000
H       -0.38280000       1.94330000      -0.47970000
H       -1.27070000       1.87320000       1.05130000
H        0.82990000      -0.18700000       0.13600000
H       -0.06150000      -0.24430000       1.66100000
H       -2.17310000      -0.71310000      -1.94450000
H       -0.32830000      -0.67420000      -1.95100000
H       -2.07800000      -2.57660000      -0.19980000
H       -0.49430000      -4.19740000       1.18210000
H       -0.76480000      -4.75130000      -0.46920000
H        1.83030000      -4.19700000      -0.10850000
