14
Properties=species:S:1:pos:R:3 gdb_677=T pbc="F F F"
C        0.16970000       1.39810000       0.39640000
C        1.39450000       2.00840000      -0.33080000
C        2.13490000       0.79970000      -0.86800000
O        2.29380000      -0.25160000       0.09710000
C        1.23440000      -0.36020000      -0.86600000
C       -0.11930000       0.05880000      -0.32760000
H        0.43140000       1.19660000       1.43700000
H       -0.69310000       2.06800000       0.39740000
H        1.08900000       2.63770000      -1.17650000
H        2.00970000       2.62580000       0.33110000
H        2.95410000       0.91000000      -1.57440000
H        1.32930000      -1.18260000      -1.57090000
H       -0.56390000      -0.68890000       0.33660000
H       -0.80600000       0.19700000      -1.17240000
