18
Properties=species:S:1:pos:R:3 gdb_78982=T pbc="F F F"
C        0.06180000       1.59920000      -0.08420000
C        0.02640000       0.10270000      -0.06660000
C        0.54200000      -0.91760000      -1.12490000
C        0.83310000      -1.85590000      -0.01750000
C        0.60410000      -0.82240000       1.09390000
C       -0.82670000      -1.09260000       1.60150000
O       -1.22180000      -0.05810000       2.48220000
C       -1.21770000      -0.82950000       0.13030000
N       -0.51760000      -1.88480000      -0.70220000
H        1.09120000       1.97160000      -0.14640000
H       -0.48850000       2.00030000      -0.94360000
H       -0.38910000       1.99590000       0.82980000
H        0.90910000      -0.84950000      -2.14240000
H        1.40290000      -2.77620000      -0.00290000
H        1.41710000      -0.53670000       1.75850000
H       -1.04270000      -2.08960000       2.01000000
H       -2.17810000      -0.10250000       2.58360000
H       -2.23880000      -0.62040000      -0.19200000
