16
Properties=species:S:1:pos:R:3 gdb_22901=T pbc="F F F"
C       -0.00820000       1.44360000      -0.22350000
C       -0.08690000      -0.04730000       0.11790000
O        0.36530000      -0.88310000      -0.94530000
C        1.72400000      -1.26240000      -0.73100000
C        1.92000000      -1.21290000       0.76330000
N        2.90390000      -1.79620000       1.33300000
O        2.92250000      -1.64770000       2.70190000
C        0.79310000      -0.39340000       1.32430000
O        0.60770000      -0.04400000       2.46200000
H        1.02090000       1.74720000      -0.44120000
H       -0.62380000       1.65810000      -1.10050000
H       -0.37000000       2.03530000       0.62230000
H       -1.12440000      -0.32340000       0.33710000
H        1.87450000      -2.26170000      -1.14740000
H        2.41240000      -0.57200000      -1.24390000
H        3.70540000      -2.15140000       2.95530000
