20
Properties=species:S:1:pos:R:3 gdb_116783=T pbc="F F F"
C       -0.48310000       1.23010000      -0.74170000
C       -0.52580000       0.17480000       0.36800000
N       -1.31720000      -1.02760000       0.16280000
C       -1.96120000      -1.19890000      -0.89900000
O       -2.68140000      -2.34710000      -1.06490000
C       -3.43380000      -2.41470000      -2.25520000
C       -4.58730000      -3.38160000      -2.20400000
C       -4.84600000      -1.89240000      -2.15490000
O       -5.25570000      -1.26790000      -0.98050000
H        0.15070000       2.06470000      -0.42720000
H       -0.06480000       0.82890000      -1.67110000
H       -1.47750000       1.63350000      -0.96070000
H        0.49650000      -0.15480000       0.59560000
H       -0.88890000       0.63800000       1.29500000
H       -2.02130000      -0.51830000      -1.75540000
H       -2.84900000      -2.30790000      -3.16550000
H       -4.83340000      -3.93700000      -3.10220000
H       -4.70490000      -3.93200000      -1.27650000
H       -5.29090000      -1.41380000      -3.02090000
H       -4.65360000      -1.54440000      -0.27830000
