19
Properties=species:S:1:pos:R:3 gdb_36451=T pbc="F F F"
N        0.06600000      -1.19730000      -0.12790000
C        0.00780000      -0.04890000      -0.01220000
C       -0.03650000       1.40540000       0.13190000
C        1.35910000       2.03900000       0.08120000
C        2.12410000       2.06020000      -1.27530000
C        2.54050000       3.53470000      -0.99770000
C        1.47530000       3.57430000       0.10170000
C        0.37500000       4.55030000       0.27510000
N        1.48750000       4.47310000       1.24530000
H       -0.66580000       1.81790000      -0.66490000
H       -0.53240000       1.64050000       1.08200000
H        1.98380000       1.60050000       0.86760000
H        2.92290000       1.32770000      -1.39640000
H        1.44100000       1.97690000      -2.12520000
H        3.54930000       3.61910000      -0.58430000
H        2.43530000       4.24640000      -1.81930000
H        0.35570000       5.45600000      -0.32580000
H       -0.60690000       4.19100000       0.57510000
H        1.18660000       3.98780000       2.08810000
