21
Properties=species:S:1:pos:R:3 gdb_82904=T pbc="F F F"
O       -0.01000000       1.43430000      -0.11000000
C        0.01360000       0.02470000       0.02430000
C        0.37670000      -0.54030000       1.42890000
C       -0.66310000       0.26000000       2.24310000
C       -1.86180000      -0.46190000       1.58110000
C       -1.57680000      -1.86700000       2.16550000
C       -0.26250000      -2.02830000       1.36600000
C       -0.91520000      -2.07830000      -0.04130000
C       -1.39390000      -0.60990000       0.03690000
H        0.89480000       1.75520000      -0.03320000
H        0.63010000      -0.39880000      -0.77770000
H        1.42300000      -0.48640000       1.73410000
H       -0.62720000       0.09740000       3.32240000
H       -0.59920000       1.32740000       2.03880000
H       -2.85420000      -0.03920000       1.73280000
H       -1.46710000      -1.84240000       3.25240000
H       -2.30430000      -2.64310000       1.91460000
H        0.40490000      -2.84400000       1.64340000
H       -0.23590000      -2.25410000      -0.87880000
H       -1.71100000      -2.82450000      -0.09260000
H       -2.09510000      -0.25230000      -0.71590000
