18
Properties=species:S:1:pos:R:3 gdb_103032=T pbc="F F F"
C       -0.16090000       1.36460000       0.05050000
O        0.19360000      -0.00770000      -0.05580000
C        0.72890000      -0.56950000       1.10590000
C        2.02420000       0.06130000       1.41900000
N        3.02740000       0.59420000       1.63420000
C       -0.21680000      -0.89510000       2.32270000
C       -0.88460000      -1.95890000       1.39880000
C        0.65010000      -2.12400000       1.17490000
C        0.80900000      -1.99590000       2.71780000
H        0.70980000       1.98840000       0.28980000
H       -0.55520000       1.65810000      -0.92380000
H       -0.93410000       1.52180000       0.81450000
H       -0.70010000      -0.17280000       2.98020000
H       -1.37510000      -2.78560000       1.91600000
H       -1.46910000      -1.59450000       0.55670000
H        1.16280000      -2.80950000       0.50110000
H        1.77770000      -1.67230000       3.10230000
H        0.40280000      -2.82470000       3.29910000
