14
Properties=species:S:1:pos:R:3 gdb_51282=T pbc="F F F"
O        0.06760000      -0.01840000       0.07750000
C       -0.01410000       1.16230000      -0.02850000
O        1.11080000       1.95360000       0.11400000
C        0.97790000       3.30810000       0.07970000
N       -0.12750000       3.92980000       0.12880000
C        0.13990000       5.36540000       0.07010000
C        1.66830000       5.53260000      -0.01350000
O        2.27860000       6.56290000      -0.07350000
C        2.24470000       4.10840000      -0.00540000
H       -0.91420000       1.74900000      -0.24810000
H       -0.34720000       5.82280000      -0.79940000
H       -0.25760000       5.87470000       0.95610000
H        2.91090000       3.94400000       0.84810000
H        2.82420000       3.89860000      -0.91060000
