14
Properties=species:S:1:pos:R:3 gdb_131658=T pbc="F F F"
O        0.06270000       1.42900000       0.08700000
C        0.04970000       0.02640000      -0.07280000
C       -1.35020000      -0.53330000      -0.12480000
C       -1.88100000      -1.28470000      -1.11070000
C       -3.24640000      -1.75310000      -0.99170000
O       -3.85090000      -2.44650000      -1.79190000
C       -3.88570000      -1.27660000       0.26100000
N       -3.35660000      -0.55460000       1.18110000
O       -2.02810000      -0.17830000       0.98930000
H       -0.38320000       1.63410000       0.91620000
H        0.55340000      -0.19560000      -1.01640000
H        0.60130000      -0.48300000       0.73360000
H       -1.29730000      -1.53480000      -1.98780000
H       -4.92060000      -1.55410000       0.44480000
