20
Properties=species:S:1:pos:R:3 gdb_99373=T pbc="F F F"
C       -0.76510000       0.36720000       0.13080000
C        0.56700000      -0.37620000      -0.06540000
C        1.39940000      -0.52080000       1.19810000
O        2.55520000      -0.16310000       1.25270000
C        0.72740000      -1.13080000       2.44030000
N        1.65680000      -1.48780000       3.49890000
C        2.33810000      -2.75780000       3.26900000
C        1.44880000      -3.92290000       3.67530000
O        1.43160000      -4.99470000       3.12860000
H       -0.60200000       1.37480000       0.52600000
H       -1.28500000       0.46510000      -0.82600000
H       -1.43380000      -0.16190000       0.81590000
H        0.36300000      -1.38860000      -0.44100000
H        1.19150000       0.12880000      -0.80710000
H        0.00560000      -0.39070000       2.81460000
H        0.13000000      -2.00370000       2.14930000
H        2.35280000      -0.75090000       3.55280000
H        2.69960000      -2.92350000       2.24290000
H        3.21510000      -2.79850000       3.92980000
H        0.80200000      -3.69460000       4.55330000
