15
Properties=species:S:1:pos:R:3 gdb_123758=T pbc="F F F"
C       -0.02690000       1.19280000      -0.26230000
C        1.46240000       1.50590000      -0.02030000
C        1.45960000       0.18600000       0.79490000
O        0.06880000      -0.04530000       0.48230000
C        2.34380000      -0.91390000       0.32260000
C        3.19340000      -1.76190000       0.96330000
N        3.75770000      -2.56880000       0.00420000
N        3.31870000      -2.27530000      -1.13550000
O        2.38900000      -1.19320000      -0.98060000
H       -0.73910000       1.88610000       0.19900000
H       -0.31720000       1.01680000      -1.30330000
H        2.09130000       1.48450000      -0.90990000
H        1.67660000       2.40240000       0.56140000
H        1.61110000       0.31000000       1.87400000
H        3.43480000      -1.85590000       2.00800000
