13
Properties=species:S:1:pos:R:3 gdb_130745=T pbc="F F F"
O       -0.10170000      -0.03870000       0.00590000
C        0.02170000       1.14940000       0.01040000
O       -1.09490000       1.99370000       0.02860000
C       -0.73270000       3.38180000       0.02970000
C        0.75970000       3.32840000       0.00920000
C        1.19310000       2.02870000      -0.00230000
C        2.60490000       2.11090000      -0.02180000
N        2.99760000       3.37890000      -0.02110000
N        1.84570000       4.11490000      -0.00200000
H       -1.16840000       3.86630000      -0.85190000
H       -1.14430000       3.85850000       0.92700000
H        3.34120000       1.32230000      -0.03560000
H        1.91790000       5.11850000       0.00140000
