17
Properties=species:S:1:pos:R:3 gdb_117910=T pbc="F F F"
C        0.15370000       1.53030000       0.02430000
N       -0.07470000       0.09100000      -0.00460000
C       -0.23560000      -0.59890000       1.28790000
C       -1.66120000      -1.09830000       1.59070000
O       -1.92310000      -2.39120000       1.11170000
C       -0.13440000      -0.64150000      -1.13630000
O       -0.39570000      -1.83560000      -1.19130000
C        0.15580000       0.07810000      -2.38980000
N        0.37160000       0.57740000      -3.40950000
H        0.24980000       1.92090000      -0.98840000
H       -0.68580000       2.03540000       0.51370000
H        1.07080000       1.75970000       0.57740000
H        0.44350000      -1.45730000       1.31840000
H        0.07970000       0.11570000       2.05210000
H       -1.78200000      -1.13750000       2.67970000
H       -2.38300000      -0.35260000       1.21290000
H       -1.56310000      -2.44630000       0.21400000
