19
Properties=species:S:1:pos:R:3 gdb_48211=T pbc="F F F"
O       -0.82020000       1.75050000      -0.23870000
C        0.18530000       1.30470000       0.25180000
C        1.55740000       1.94730000       0.06570000
C        1.72710000       3.04720000       1.10840000
C        2.24800000       4.37920000       0.70470000
N        0.83640000       4.21160000       1.08020000
N        2.58730000       0.93290000       0.23540000
C        2.94860000       0.15810000      -0.95190000
C        3.87380000       1.18710000      -0.40390000
H        0.17970000       0.40310000       0.90180000
H        1.55620000       2.41040000      -0.93790000
H        1.94560000       2.67090000       2.10500000
H        2.84060000       4.96640000       1.40040000
H        2.49990000       4.52630000      -0.34300000
H        0.24130000       4.16810000       0.25510000
H        3.13550000      -0.89820000      -0.78430000
H        2.44230000       0.39070000      -1.88710000
H        3.98920000       2.10800000      -0.97180000
H        4.74880000       0.89340000       0.16820000
