21
Properties=species:S:1:pos:R:3 gdb_120265=T pbc="F F F"
C        0.06860000       1.48940000      -0.02490000
C        0.18230000      -0.02430000       0.02040000
O        0.52010000      -0.48910000      -1.28350000
C        0.67860000      -1.88870000      -1.36210000
C        0.77630000      -2.43630000      -2.77710000
C        1.95170000      -1.83640000      -3.49420000
C        2.20960000      -2.93770000      -2.50910000
C        2.14130000      -2.40500000      -1.07210000
O        3.06310000      -1.43180000      -0.65030000
H        1.02190000       1.94130000      -0.31500000
H       -0.68980000       1.79660000      -0.75040000
H       -0.21090000       1.87880000       0.95860000
H        0.94820000      -0.33650000       0.74430000
H       -0.77300000      -0.47560000       0.33340000
H       -0.07960000      -2.39710000      -0.75310000
H       -0.02890000      -2.93030000      -3.30580000
H        2.04430000      -2.12190000      -4.53680000
H        2.26020000      -0.81580000      -3.29110000
H        2.65780000      -3.87790000      -2.80580000
H        2.16180000      -3.21210000      -0.33520000
H        2.75880000      -0.59500000      -1.02350000
