16
Properties=species:S:1:pos:R:3 gdb_23414=T pbc="F F F"
O       -0.17780000       1.36870000       0.09930000
N        0.01120000      -0.01970000       0.08700000
C       -1.09400000      -0.63800000      -0.00740000
C       -2.51240000      -0.06330000      -0.10230000
C       -3.32700000      -1.26460000      -0.56410000
C       -2.61560000      -2.37920000      -0.42350000
C       -2.13610000      -3.57330000      -1.20990000
O       -0.78110000      -3.02740000      -1.09790000
C       -1.20420000      -2.14960000       0.00890000
H        0.72660000       1.69890000       0.13930000
H       -2.82380000       0.37410000       0.85610000
H       -2.55560000       0.75500000      -0.83040000
H       -4.26910000      -1.15850000      -1.08890000
H       -2.20520000      -4.54810000      -0.71030000
H       -2.47370000      -3.65990000      -2.24700000
H       -0.85380000      -2.58040000       0.95530000
