20
Properties=species:S:1:pos:R:3 gdb_91055=T pbc="F F F"
C       -0.09790000       1.56660000       0.07490000
C        0.07780000       0.04690000       0.01230000
C        0.88530000      -0.44010000      -1.24600000
C        1.48670000      -1.76010000      -0.74830000
C        2.94710000      -2.29330000      -0.76010000
N        3.83050000      -1.28380000      -0.14460000
C        3.00740000      -2.18480000       0.73810000
C        1.66700000      -1.49780000       0.73080000
C        0.89760000      -0.51680000       1.18370000
H        0.87400000       2.06980000       0.12360000
H       -0.62480000       1.93590000      -0.81160000
H       -0.67710000       1.86660000       0.95490000
H       -0.92460000      -0.40990000      -0.00540000
H        0.25940000      -0.52360000      -2.13990000
H        1.68660000       0.28000000      -1.44590000
H        0.81660000      -2.61410000      -0.91850000
H        3.35210000      -3.06310000      -1.40600000
H        4.77310000      -1.67760000      -0.15420000
H        3.48800000      -2.81530000       1.47470000
H        0.87070000      -0.08390000       2.17750000
