19
Properties=species:S:1:pos:R:3 gdb_64076=T pbc="F F F"
C       -0.13240000       1.54500000      -0.00710000
C       -0.00290000       0.01190000       0.00690000
C       -1.40340000      -0.63790000       0.04720000
C        0.77460000      -0.43210000      -1.23910000
O        1.15770000      -1.81370000      -1.21140000
C        1.78150000      -2.28290000      -0.09570000
O        2.34330000      -3.34670000      -0.12930000
C        1.65140000      -1.46280000       1.13090000
C        0.79880000      -0.43880000       1.20510000
H        0.84820000       2.03120000       0.00760000
H       -0.66590000       1.88160000      -0.90230000
H       -0.69470000       1.89240000       0.86560000
H       -2.02160000      -0.26270000      -0.77580000
H       -1.33300000      -1.72480000      -0.04290000
H       -1.91570000      -0.40600000       0.98630000
H        0.17160000      -0.31950000      -2.14400000
H        1.67860000       0.18150000      -1.34830000
H        2.22500000      -1.81740000       1.97890000
H        0.64190000       0.08540000       2.14590000
