16
Properties=species:S:1:pos:R:3 gdb_46272=T pbc="F F F"
O       -0.06370000      -0.00950000      -0.01770000
C       -0.03540000       1.18990000      -0.01130000
N       -1.02170000       2.15150000      -0.02160000
C       -0.12170000       3.30220000       0.07920000
C        1.05780000       2.28870000       0.02970000
C        2.21040000       2.33010000       1.08710000
C        3.20690000       2.46570000      -0.07640000
O        3.02900000       1.31870000      -0.91080000
C        2.12420000       2.40970000      -1.07210000
H       -2.02770000       2.07930000       0.00880000
H       -0.18220000       3.99770000      -0.76550000
H       -0.20410000       3.86030000       1.01800000
H        2.15170000       3.21590000       1.72460000
H        2.33620000       1.43440000       1.69880000
H        4.17220000       2.95690000      -0.10150000
H        2.02320000       2.84130000      -2.06170000
