14
Properties=species:S:1:pos:R:3 gdb_53988=T pbc="F F F"
C       -0.79670000       0.31710000       0.72520000
C        0.33610000       0.14290000      -0.23800000
O        1.42010000       0.66480000      -0.14950000
C        0.12560000      -0.79250000      -1.48870000
O        1.23230000      -0.70180000      -2.32560000
C        0.00380000      -2.26700000      -0.98630000
O       -0.87710000      -2.68350000      -0.29280000
C       -1.11580000      -0.40660000      -2.17790000
N       -2.09560000      -0.10010000      -2.70820000
H       -0.43630000       0.78940000       1.63920000
H       -1.55750000       0.95460000       0.26020000
H       -1.27430000      -0.64420000       0.93240000
H        1.83400000      -0.07430000      -1.88280000
H        0.85960000      -2.87260000      -1.34640000
