16
Properties=species:S:1:pos:R:3 gdb_18334=T pbc="F F F"
O       -0.13640000       0.20630000       0.77550000
C       -0.10340000       1.28230000       0.22330000
N       -1.18640000       2.05360000      -0.14600000
C       -0.86220000       3.43030000      -0.47020000
C        0.68440000       3.40610000      -0.39590000
C        1.43360000       3.82470000       0.89890000
C        1.98340000       2.37020000       0.95090000
N        1.05790000       1.98690000      -0.15430000
H       -2.11160000       1.73960000       0.09100000
H       -1.21250000       3.70570000      -1.47180000
H       -1.29430000       4.14430000       0.24460000
H        1.13740000       3.80760000      -1.30620000
H        2.16530000       4.62890000       0.80110000
H        0.75660000       4.05610000       1.72600000
H        3.02970000       2.27480000       0.64920000
H        1.81940000       1.79670000       1.86600000
