21
Properties=species:S:1:pos:R:3 gdb_86344=T pbc="F F F"
O        0.35410000       0.52190000      -1.07930000
C        0.01400000      -0.35700000      -0.03870000
C        0.11200000       0.09550000       1.44510000
C       -1.13360000      -0.79040000       1.72710000
O       -2.08880000      -0.40060000       2.67930000
C       -1.48280000      -0.74210000       0.20300000
C       -2.45470000       0.35820000      -0.15860000
C       -3.12860000       0.36100000      -1.51210000
C       -3.93190000       0.05770000      -0.27550000
H       -0.28060000       1.24550000      -1.07960000
H        0.61690000      -1.25420000      -0.20530000
H        1.03380000      -0.10450000       1.99510000
H       -0.13380000       1.15910000       1.54640000
H       -0.82730000      -1.79960000       2.01670000
H       -2.51830000       0.40030000       2.36210000
H       -1.81950000      -1.68160000      -0.24650000
H       -2.21600000       1.34440000       0.23830000
H       -3.28940000       1.31160000      -2.00840000
H       -2.89560000      -0.45700000      -2.18500000
H       -4.24570000      -0.96660000      -0.10680000
H       -4.64050000       0.80160000       0.07150000
