15
Properties=species:S:1:pos:R:3 gdb_130097=T pbc="F F F"
N       -0.05700000       1.29670000      -0.04450000
C       -0.02060000      -0.07980000      -0.03630000
N       -1.10950000      -0.82610000       0.12090000
N       -0.55200000      -2.09050000       0.05910000
C       -1.05510000      -3.40530000      -0.25410000
C        0.30670000      -4.16490000      -0.25010000
O        1.34540000      -3.16270000      -0.45290000
C        0.75530000      -1.98520000      -0.20380000
N        1.17460000      -0.74780000      -0.24360000
H        0.81770000       1.72140000       0.22460000
H       -0.85740000       1.68850000       0.42890000
H       -1.74070000      -3.79340000       0.50310000
H       -1.55380000      -3.42790000      -1.23140000
H        0.48650000      -4.64450000       0.71650000
H        0.39560000      -4.90300000      -1.04720000
