19
Properties=species:S:1:pos:R:3 gdb_42013=T pbc="F F F"
C        0.02650000       1.42110000      -0.14510000
C        1.46930000       1.84860000       0.23410000
N        2.16150000       0.56350000       0.16900000
C        3.45930000       0.38460000       0.78760000
C        3.85320000      -1.08640000       0.66240000
C        2.70900000      -1.95070000       1.17400000
O        1.48570000      -1.68900000       0.47150000
C        1.15530000      -0.39970000       0.29110000
N       -0.05180000      -0.01880000       0.13920000
H       -0.73320000       1.97180000       0.41640000
H       -0.16460000       1.59850000      -1.21230000
H        1.90900000       2.57800000      -0.45280000
H        1.51960000       2.26510000       1.25440000
H        4.19080000       1.03010000       0.28860000
H        3.44070000       0.68310000       1.85250000
H        4.05540000      -1.33020000      -0.38570000
H        4.75940000      -1.29100000       1.24050000
H        2.90130000      -3.01490000       1.02450000
H        2.54720000      -1.77960000       2.24790000
