18
Properties=species:S:1:pos:R:3 gdb_55171=T pbc="F F F"
C        0.11370000       1.24240000       0.54600000
C        0.15370000      -0.21620000       0.13310000
O        1.17810000      -0.80630000      -0.10370000
C       -1.20710000      -0.90170000       0.03250000
N       -1.19690000      -2.38060000       0.15470000
C       -2.24480000      -2.34670000       1.20070000
C       -1.63460000      -2.28980000       2.61410000
O       -1.49680000      -0.84090000       2.52630000
C       -2.16370000      -0.80460000       1.25440000
H        1.08690000       1.70540000       0.37770000
H       -0.66380000       1.79290000       0.00450000
H       -0.13420000       1.29000000       1.61280000
H       -1.70470000      -0.52480000      -0.87560000
H       -1.45150000      -2.87640000      -0.68920000
H       -3.14720000      -2.93450000       1.03110000
H       -2.31270000      -2.56380000       3.43170000
H       -0.67110000      -2.79490000       2.72510000
H       -2.98910000      -0.09030000       1.22590000
