21
Properties=species:S:1:pos:R:3 gdb_65086=T pbc="F F F"
O       -0.14560000       1.28980000       0.40600000
C       -0.00280000      -0.06600000       0.05900000
C        1.05080000      -0.48350000      -0.93340000
C        1.19450000      -0.84490000       0.53780000
C       -1.34980000      -0.70570000       0.03340000
C       -2.36010000      -0.80740000       1.22030000
C       -3.06280000      -1.48300000       0.00960000
C       -2.56430000      -0.29400000      -0.85850000
C       -1.70750000      -2.18530000      -0.29690000
H        0.72520000       1.69850000       0.42230000
H        0.82380000      -1.27470000      -1.63960000
H        1.70080000       0.29150000      -1.32850000
H        1.93970000      -0.30970000       1.11850000
H        1.06480000      -1.88130000       0.82980000
H       -2.07220000      -1.46000000       2.04980000
H       -2.78350000       0.13450000       1.57630000
H       -4.05170000      -1.94100000      -0.00640000
H       -3.00260000       0.68560000      -0.65530000
H       -2.46320000      -0.47650000      -1.93240000
H       -1.54700000      -2.51120000      -1.32900000
H       -1.37540000      -2.94300000       0.41920000
