21
Properties=species:S:1:pos:R:3 gdb_72661=T pbc="F F F"
O       -0.08910000       1.40390000      -0.29340000
C        0.00560000       0.02430000      -0.03900000
C        0.27550000      -0.36760000       1.44660000
C       -1.10250000      -1.08420000       1.52060000
C       -1.39370000      -0.70370000       0.03600000
O       -2.48830000       0.15560000      -0.16500000
C       -1.31520000      -1.86700000      -0.96620000
C        0.18990000      -2.15400000      -1.12150000
C        0.82680000      -0.75240000      -1.08120000
H        0.80010000       1.77170000      -0.24660000
H        1.14930000      -1.00470000       1.61090000
H        0.34920000       0.51000000       2.09200000
H       -1.06700000      -2.15720000       1.73010000
H       -1.80710000      -0.61110000       2.20760000
H       -3.29200000      -0.35730000      -0.02690000
H       -1.89260000      -2.74360000      -0.65150000
H       -1.72910000      -1.51240000      -1.91740000
H        0.55180000      -2.76310000      -0.28440000
H        0.42530000      -2.70100000      -2.03830000
H        0.69290000      -0.25210000      -2.04750000
H        1.89890000      -0.77070000      -0.85510000
