22
Properties=species:S:1:pos:R:3 gdb_78669=T pbc="F F F"
C       -0.13410000       1.43950000       0.04730000
C        0.00750000      -0.06610000      -0.09700000
C        0.88670000      -0.54340000      -1.26860000
C        2.06490000      -0.51020000      -0.22280000
N        1.04130000      -0.59180000       0.86350000
C        1.59990000      -1.84480000       0.22240000
C        2.24080000      -2.84990000       1.12690000
C        0.89410000      -2.09490000      -1.12000000
C       -0.38470000      -2.91940000      -1.21670000
H        0.83100000       1.94230000      -0.07350000
H       -0.82290000       1.83400000      -0.70730000
H       -0.52610000       1.69420000       1.03670000
H       -0.97500000      -0.54080000       0.01260000
H        0.85170000      -0.07610000      -2.25260000
H        3.01020000       0.01070000      -0.14220000
H        2.77590000      -2.34980000       1.93860000
H        1.49010000      -3.50860000       1.57830000
H        2.95100000      -3.47580000       0.57530000
H        1.64320000      -2.50130000      -1.81090000
H       -1.14620000      -2.60160000      -0.50000000
H       -0.81770000      -2.85160000      -2.22120000
H       -0.17440000      -3.97690000      -1.02190000
