18
Properties=species:S:1:pos:R:3 gdb_28336=T pbc="F F F"
C        0.10670000       1.48960000       0.00310000
C       -0.06210000       0.00700000       0.01980000
C       -1.21390000      -0.67730000       0.15760000
C       -1.17560000      -2.11280000       0.14960000
C       -0.01090000      -2.78780000       0.00780000
C        0.09900000      -4.28260000      -0.00810000
C        1.22800000      -2.03210000      -0.13950000
N        2.36830000      -2.57960000      -0.27710000
O        1.12320000      -0.64140000      -0.12530000
H        0.77240000       1.81210000       0.81140000
H        0.56130000       1.81670000      -0.93870000
H       -0.85750000       1.98720000       0.12080000
H       -2.14720000      -0.14260000       0.27170000
H       -2.10490000      -2.66370000       0.26030000
H        0.55460000      -4.62840000      -0.94190000
H        0.75660000      -4.63210000       0.79480000
H       -0.88330000      -4.74850000       0.10540000
H        3.09860000      -1.87260000      -0.36360000
