20
Properties=species:S:1:pos:R:3 gdb_95862=T pbc="F F F"
C        0.00110000       1.46430000      -0.01620000
N       -0.01060000       0.01150000       0.02780000
C       -1.35950000      -0.53650000      -0.07380000
C       -1.30230000      -2.06550000      -0.14760000
N       -0.56400000      -2.67590000       0.96210000
C        0.75040000      -2.04420000       1.11300000
C        0.68520000      -0.50230000       1.19750000
C        1.44120000      -2.59360000       2.28510000
N        1.98520000      -2.99450000       3.22200000
H        1.03340000       1.82720000       0.00040000
H       -0.46710000       1.80730000      -0.94400000
H       -0.53830000       1.92950000       0.83060000
H       -1.98920000      -0.23120000       0.78830000
H       -1.83260000      -0.13530000      -0.97730000
H       -2.31240000      -2.48510000      -0.16110000
H       -0.80800000      -2.35910000      -1.08170000
H       -1.08640000      -2.55990000       1.82700000
H        1.33850000      -2.30110000       0.22180000
H        1.69840000      -0.08770000       1.22360000
H        0.18640000      -0.21930000       2.14700000
