16
Properties=species:S:1:pos:R:3 gdb_25963=T pbc="F F F"
C       -0.17810000       1.51510000      -0.01230000
C       -0.59130000       0.14570000      -0.52310000
O       -0.83070000      -0.08380000      -1.69110000
N       -0.64620000      -0.83010000       0.44860000
C       -0.95070000      -2.16370000       0.21820000
C       -1.26880000      -2.90000000      -0.88100000
C       -1.46480000      -4.23650000      -0.39100000
C       -1.25290000      -4.20360000       0.94620000
O       -0.93380000      -2.92710000       1.33930000
H       -0.68950000       2.27490000      -0.60470000
H       -0.40210000       1.66670000       1.04720000
H        0.89950000       1.64550000      -0.15860000
H       -0.43950000      -0.59090000       1.40550000
H       -1.34890000      -2.52830000      -1.88600000
H       -1.73060000      -5.10460000      -0.97380000
H       -1.27990000      -4.93500000       1.73520000
