19
Properties=species:S:1:pos:R:3 gdb_53061=T pbc="F F F"
C       -0.06800000       1.42730000      -0.00930000
C       -0.00450000      -0.02510000      -0.01910000
C        0.06200000      -1.23200000      -0.02900000
C        0.08300000      -2.63670000      -0.03340000
C        1.09240000      -3.51990000      -0.16030000
C        0.39720000      -4.87920000      -0.07550000
C       -0.84760000      -4.61650000      -0.99500000
C       -1.15130000      -3.56020000       0.11900000
C       -0.58400000      -4.61930000       1.12180000
H        0.52920000       1.84780000       0.80830000
H        0.31390000       1.85020000      -0.94590000
H       -1.09740000       1.78050000       0.11760000
H        2.14840000      -3.33470000      -0.29150000
H        1.00400000      -5.78050000      -0.15230000
H       -0.65940000      -4.24640000      -2.00540000
H       -1.55960000      -5.44790000      -1.00800000
H       -2.12480000      -3.08800000       0.24090000
H       -1.27140000      -5.45090000       1.30680000
H       -0.15370000      -4.25180000       2.05620000
