19
Properties=species:S:1:pos:R:3 gdb_77991=T pbc="F F F"
C       -0.30270000       1.56730000       0.08440000
C        0.02410000       0.07860000       0.04570000
C        1.14180000      -0.45410000      -0.90850000
C        1.78920000      -1.21330000       0.26770000
C        2.30630000      -2.53590000       0.21430000
C        2.74730000      -3.65570000       0.15820000
C        2.17340000      -0.22520000       1.34860000
O        2.62310000       1.06620000       1.06160000
C        0.73310000      -0.57380000       1.24280000
H        0.59440000       2.16240000       0.26260000
H       -0.75350000       1.88670000      -0.86210000
H       -1.02220000       1.78620000       0.88160000
H       -0.89140000      -0.48790000      -0.15320000
H        0.76670000      -1.11840000      -1.68760000
H        1.78470000       0.30580000      -1.36080000
H        3.13290000      -4.64340000       0.10940000
H        2.67400000      -0.69840000       2.19380000
H        3.53400000       1.00180000       0.75410000
H        0.22320000      -1.05560000       2.06980000
