16
Properties=species:S:1:pos:R:3 gdb_31296=T pbc="F F F"
C        0.05160000       1.44330000       0.08550000
N       -0.17930000       0.02790000      -0.12800000
C        0.51910000      -0.64700000      -1.10420000
C        0.66830000      -2.03660000      -1.18800000
N        1.39210000      -2.30620000      -2.34610000
C        1.69660000      -1.14260000      -2.96820000
C        1.17960000      -0.09260000      -2.23400000
C        0.21490000      -3.02960000      -0.30990000
N       -0.16870000      -3.83080000       0.44050000
H        1.10090000       1.68720000       0.31290000
H       -0.24490000       2.01370000      -0.80130000
H       -0.57140000       1.78100000       0.91640000
H       -0.34830000      -0.50860000       0.70950000
H        1.64600000      -3.22830000      -2.65350000
H        2.26040000      -1.13460000      -3.88730000
H        1.26490000       0.95220000      -2.48360000
