18
Properties=species:S:1:pos:R:3 gdb_43398=T pbc="F F F"
O        0.06450000      -0.05900000      -0.04560000
C        0.01830000       1.16130000       0.00730000
C       -1.21910000       1.92680000      -0.00770000
C       -1.20410000       3.28150000      -0.09110000
N       -0.06830000       4.03290000      -0.04310000
C        1.12840000       3.40870000       0.51510000
C        1.28170000       1.99760000      -0.01350000
C        2.58770000       1.27900000       0.19730000
C        2.21300000       1.72050000      -1.18580000
H       -2.15200000       1.38280000      -0.07650000
H       -2.12250000       3.84510000      -0.23090000
H       -0.18230000       5.01970000       0.12380000
H        2.00120000       4.01740000       0.26030000
H        1.05120000       3.37690000       1.61550000
H        3.37940000       1.81110000       0.71480000
H        2.50160000       0.22280000       0.42420000
H        1.89800000       0.95920000      -1.89000000
H        2.73000000       2.56900000      -1.62230000
