21
Properties=species:S:1:pos:R:3 gdb_87994=T pbc="F F F"
C       -0.01820000       1.50610000      -0.12390000
C       -0.00750000       0.01080000       0.05700000
O        1.26480000      -0.65060000      -0.05760000
C        0.62830000      -0.65330000       1.20130000
C        1.17150000      -0.04320000       2.49350000
C        0.32350000      -1.09670000       3.26650000
C        0.16390000      -1.92250000       1.94540000
C       -1.19590000      -2.51990000       1.62230000
O        1.19890000      -2.88610000       1.80190000
H        0.80960000       1.97240000       0.41600000
H        0.07770000       1.76410000      -1.18380000
H       -0.96010000       1.93140000       0.24030000
H       -0.81680000      -0.52210000      -0.44600000
H        2.24450000      -0.22110000       2.59540000
H        0.96160000       1.01130000       2.68480000
H        0.82130000      -1.62390000       4.08310000
H       -0.62700000      -0.69180000       3.62370000
H       -1.98970000      -1.76940000       1.68430000
H       -1.19320000      -2.94860000       0.61530000
H       -1.44150000      -3.32240000       2.32930000
H        1.01120000      -3.60680000       2.41350000
