23
Properties=species:S:1:pos:R:3 gdb_103593=T pbc="F F F"
C        0.52560000       1.42690000       0.16900000
C       -0.03730000       0.01980000       0.00880000
O       -1.44350000       0.06270000      -0.18960000
C        0.72990000      -0.89810000      -0.99940000
C        1.18320000      -1.81630000       0.18030000
C        0.78360000      -3.28430000       0.04810000
C        2.68120000      -1.67280000       0.46770000
O        3.07460000      -2.20750000       1.72180000
C        0.29550000      -0.97580000       1.15000000
H        1.60050000       1.41270000       0.37260000
H        0.37290000       2.01270000      -0.74710000
H        0.02470000       1.94220000       0.99460000
H       -1.62100000       0.65650000      -0.92780000
H        0.04730000      -1.39170000      -1.69540000
H        1.53620000      -0.42320000      -1.56860000
H        1.34290000      -3.77990000      -0.75530000
H        0.96330000      -3.83520000       0.97990000
H       -0.28250000      -3.38030000      -0.17820000
H        3.25640000      -2.12370000      -0.35880000
H        2.95510000      -0.61290000       0.50750000
H        2.95740000      -3.16150000       1.68770000
H        0.81250000      -0.56230000       2.01920000
H       -0.60150000      -1.49940000       1.48720000
