14
Properties=species:S:1:pos:R:3 gdb_13469=T pbc="F F F"
C       -0.11080000       1.44970000       0.08170000
C       -0.07380000      -0.06360000       0.05720000
O       -0.15700000      -0.76430000       1.03230000
C        0.02840000      -0.66320000      -1.34960000
O        0.10140000      -2.09080000      -1.39540000
C       -1.18260000      -2.24730000      -2.03480000
C       -1.32820000      -0.72440000      -2.09110000
O       -2.11700000       0.06990000      -2.49660000
H        0.86000000       1.85440000      -0.22700000
H       -0.85600000       1.81900000      -0.63260000
H       -0.34550000       1.79810000       1.08790000
H        0.82890000      -0.17040000      -1.91850000
H       -1.12210000      -2.75310000      -3.00590000
H       -1.91700000      -2.75440000      -1.39660000
