15
Properties=species:S:1:pos:R:3 gdb_6006=T pbc="F F F"
C        0.07650000       1.53240000      -0.09220000
C       -0.05730000       0.00260000       0.06550000
N        0.69820000      -0.43070000       1.26580000
H        0.28690000      -1.27800000       1.64630000
H        1.97400000      -0.98030000       0.02610000
H        0.64570000       0.27630000       1.99220000
C       -1.46460000      -0.39250000       0.12340000
C       -2.61270000      -0.73060000       0.22860000
C        0.62560000      -0.62980000      -1.19460000
O        1.84710000      -1.10660000      -0.94220000
O        0.11640000      -0.62830000      -2.27940000
H        1.13320000       1.81640000      -0.08910000
H       -0.37290000       1.84380000      -1.03580000
H       -0.43650000       2.04200000       0.72870000
H       -3.62930000      -1.03140000       0.29580000
