20
Properties=species:S:1:pos:R:3 gdb_109255=T pbc="F F F"
O        0.02860000       1.18860000      -0.79590000
C       -0.07720000      -0.15430000      -0.36660000
C       -1.43020000      -0.54580000       0.17820000
C       -2.50120000       0.24280000       0.09540000
C       -3.83900000      -0.13770000       0.66510000
C       -3.99250000      -1.63410000       0.88470000
C       -3.64760000      -2.58980000      -0.20350000
N       -2.81910000      -2.50530000       0.99990000
C       -1.49460000      -1.89810000       0.85270000
H       -0.14360000       1.74970000      -0.03220000
H        0.15590000      -0.76760000      -1.24760000
H        0.69780000      -0.39800000       0.38200000
H       -2.41680000       1.20540000      -0.40060000
H       -3.99130000       0.37990000       1.62410000
H       -4.64590000       0.22100000       0.01220000
H       -4.79780000      -1.90760000       1.56430000
H       -4.20050000      -3.51770000      -0.32380000
H       -3.25790000      -2.16470000      -1.12650000
H       -0.85910000      -2.61580000       0.31470000
H       -1.06020000      -1.81770000       1.86030000
