19
Properties=species:S:1:pos:R:3 gdb_70106=T pbc="F F F"
C       -0.08810000       1.47420000      -0.01680000
C        0.03860000      -0.02820000       0.03640000
C       -0.76810000      -0.81720000       1.03250000
C        0.74650000      -0.76950000       1.16010000
C        1.45900000      -1.90780000       0.51500000
C        1.25570000      -1.94040000      -0.80190000
C        0.41660000      -0.75690000      -1.27630000
C       -0.73090000      -1.13860000      -2.09590000
C       -1.67710000      -1.45460000      -2.76730000
H        0.82780000       1.93970000      -0.39940000
H       -0.91440000       1.77410000      -0.67190000
H       -0.28460000       1.89010000       0.97630000
H       -1.34900000      -0.24080000       1.74600000
H       -1.22120000      -1.75440000       0.72740000
H        1.18920000      -0.24670000       2.00140000
H        2.03780000      -2.63390000       1.07500000
H        1.60380000      -2.70070000      -1.49010000
H        1.04790000      -0.08550000      -1.88010000
H       -2.51220000      -1.73250000      -3.36110000
