14
Properties=species:S:1:pos:R:3 gdb_128910=T pbc="F F F"
N       -0.01510000      -1.16750000      -0.02670000
C        0.04820000      -0.03620000       0.19850000
C        0.14190000       1.39610000       0.46990000
C        1.16960000       2.08220000      -0.44950000
C        1.25840000       3.54340000      -0.16430000
N        0.60080000       4.23440000       0.71950000
C        1.10030000       5.49860000       0.51400000
N        1.99990000       5.59630000      -0.42350000
O        2.11190000       4.27710000      -0.88690000
H       -0.84330000       1.85370000       0.33990000
H        0.41530000       1.54800000       1.51840000
H        2.15890000       1.62980000      -0.32260000
H        0.90000000       1.93640000      -1.50100000
H        0.78330000       6.36330000       1.07850000
