15
Properties=species:S:1:pos:R:3 gdb_18584=T pbc="F F F"
O        0.54770000       1.08260000      -0.60930000
C        0.12170000      -0.11970000      -0.04140000
C        0.12730000      -0.27440000       1.52100000
C       -1.33200000      -0.78420000       1.46490000
O       -2.28880000       0.09430000       2.11140000
C       -2.63080000       0.98220000       1.15320000
N       -2.21030000       0.83640000      -0.03910000
C       -1.41150000      -0.40180000      -0.04070000
H       -0.19950000       1.69390000      -0.55480000
H        0.68400000      -0.92650000      -0.52190000
H        0.86510000      -0.96550000       1.93350000
H        0.20870000       0.68310000       2.04070000
H       -1.53130000      -1.80280000       1.79320000
H       -3.27580000       1.78580000       1.49240000
H       -1.79680000      -1.10190000      -0.78580000
