18
Properties=species:S:1:pos:R:3 gdb_38545=T pbc="F F F"
C       -0.13410000       1.44370000       0.18970000
N        1.20970000       0.88180000      -0.04430000
C        1.61480000       0.27150000       1.29060000
C        0.48000000      -0.72700000       1.17080000
C        0.19800000      -1.99570000       1.43360000
C       -0.85300000      -2.67710000       0.58540000
O       -1.50660000      -1.82090000      -0.34400000
C       -0.65580000      -0.91740000      -1.04920000
C       -0.04360000      -0.01550000      -0.01090000
H       -0.37510000       1.85840000       1.16730000
H       -0.49290000       2.02970000      -0.65260000
H        2.61220000      -0.17030000       1.23280000
H        1.58750000       0.99360000       2.11390000
H        0.73510000      -2.59900000       2.15950000
H       -0.38430000      -3.52640000       0.05490000
H       -1.65760000      -3.09570000       1.20160000
H        0.13270000      -1.45610000      -1.59770000
H       -1.29490000      -0.40110000      -1.76960000
