18
Properties=species:S:1:pos:R:3 gdb_31503=T pbc="F F F"
C       -0.16590000       1.37160000      -0.20650000
C        0.13480000       0.02810000       0.36080000
C       -0.86050000      -1.07140000       0.32150000
O       -1.97420000      -1.08630000      -0.12500000
O       -0.28920000      -2.18110000       0.92230000
C        0.98630000      -1.84780000       1.33140000
C        1.77790000      -2.72540000       1.94710000
N       -3.12710000      -4.14690000       0.20070000
H       -2.97860000      -4.52620000      -0.73210000
H       -3.02790000      -3.13810000       0.09530000
H       -2.30420000      -4.42500000       0.73110000
C        1.22960000      -0.46060000       0.96880000
H       -0.40800000       1.29480000      -1.27210000
H       -1.04570000       1.80660000       0.27980000
H        0.67690000       2.05550000      -0.08590000
H        1.44920000      -3.73570000       2.15110000
H        2.77240000      -2.43070000       2.25460000
H        2.15860000       0.05220000       1.17740000
