23
Properties=species:S:1:pos:R:3 gdb_84847=T pbc="F F F"
C       -1.06750000       1.05740000       0.21140000
C       -0.00440000      -0.02760000      -0.05460000
C        0.71250000       0.26480000      -1.35200000
C        2.01200000       0.38040000      -1.63630000
C        3.22730000       0.24690000      -0.75650000
C        3.00000000      -0.06890000       0.71890000
C        2.03380000      -1.26240000       0.96630000
C        0.88280000      -0.23890000       1.17640000
C        1.96100000       0.86080000       1.40620000
H       -0.59930000       2.02780000       0.40640000
H       -1.73410000       1.17830000      -0.64860000
H       -1.68180000       0.79680000       1.07970000
H       -0.55170000      -0.97240000      -0.21120000
H        0.02430000       0.40590000      -2.18600000
H        2.26080000       0.60240000      -2.67400000
H        3.87600000      -0.52930000      -1.19160000
H        3.81010000       1.17770000      -0.83740000
H        3.97150000      -0.13880000       1.21750000
H        1.91630000      -1.99010000       0.15770000
H        2.27560000      -1.79920000       1.88780000
H        0.23390000      -0.43900000       2.03490000
H        2.17680000       1.00250000       2.46870000
H        1.79170000       1.84130000       0.95200000
