17
Properties=species:S:1:pos:R:3 gdb_105842=T pbc="F F F"
C        0.06560000       1.54860000      -0.14300000
C       -0.10070000       0.02840000      -0.00240000
C        0.64570000      -0.51130000       1.18580000
C        2.12420000      -0.99930000       1.16360000
O        3.14730000      -0.51460000       1.95410000
C        1.06710000      -1.90300000       1.66450000
O        0.80340000      -1.53960000       3.05100000
C        0.29030000      -0.30320000       2.62930000
O       -0.25470000       0.50790000       3.30240000
H        1.11700000       1.81720000      -0.28490000
H       -0.50130000       1.92240000      -1.00040000
H       -0.29350000       2.05900000       0.75490000
H       -1.16500000      -0.22070000       0.09000000
H        0.25700000      -0.47610000      -0.90800000
H        2.46410000      -1.17520000       0.14570000
H        2.92300000      -0.71110000       2.87350000
H        0.77340000      -2.89800000       1.35690000
