15
Properties=species:S:1:pos:R:3 gdb_42602=T pbc="F F F"
N       -0.12390000       1.17810000      -0.32750000
C       -0.08080000      -0.04380000      -0.05790000
C       -1.08340000      -1.09540000       0.23900000
C       -0.66480000      -2.40940000      -0.48080000
C        0.27390000      -2.36510000      -1.66830000
C        1.40940000      -1.44630000      -1.17750000
O        2.36110000      -1.06830000      -1.78980000
N        1.06180000      -0.98260000       0.16760000
C        0.07390000      -1.95540000       0.72410000
H        0.81470000       1.56580000      -0.44040000
H       -2.08100000      -0.96940000       0.63750000
H       -1.39380000      -3.20630000      -0.38930000
H        0.66190000      -3.36090000      -1.90670000
H       -0.14610000      -1.94460000      -2.58680000
H        0.24710000      -2.44840000       1.66970000
