15
Properties=species:S:1:pos:R:3 gdb_5403=T pbc="F F F"
C       -0.00120000       1.40360000       0.00790000
O       -0.01910000      -0.02220000       0.00350000
C       -1.22620000      -0.62130000       0.01070000
N       -2.32450000       0.12070000       0.02150000
C       -3.50290000      -0.51950000       0.02830000
C       -3.63080000      -1.89850000       0.02460000
C       -2.45910000      -2.66330000       0.01320000
C       -1.23350000      -2.02610000       0.00600000
H        1.05400000       1.68100000       0.00050000
H       -0.50650000       1.80850000      -0.87370000
H       -0.49240000       1.80280000       0.90000000
H       -4.38430000       0.11750000       0.03710000
H       -4.60990000      -2.36190000       0.03050000
H       -2.50800000      -3.74740000       0.00990000
H       -0.29500000      -2.56620000      -0.00290000
