18
Properties=species:S:1:pos:R:3 gdb_69279=T pbc="F F F"
O        0.14060000       1.39050000       0.03280000
C        0.05180000      -0.00460000      -0.00980000
C       -0.49490000      -0.69230000      -1.20960000
C       -1.31590000      -0.68180000       0.09470000
C       -1.45860000      -1.93260000       0.88830000
O       -2.53410000      -2.33220000       1.28260000
C       -0.14150000      -2.61450000       1.26710000
N        0.83660000      -1.64590000       1.76980000
C        1.21060000      -0.64790000       0.77250000
H       -0.35130000       1.76370000      -0.70540000
H       -0.89890000      -0.09210000      -2.01990000
H       -0.04850000      -1.62650000      -1.53480000
H       -2.19740000      -0.04890000       0.09050000
H       -0.35730000      -3.36790000       2.02830000
H        0.29420000      -3.13170000       0.40110000
H        0.44570000      -1.17950000       2.58300000
H        1.90870000      -1.11410000       0.06550000
H        1.74700000       0.16140000       1.27290000
