25
Properties=species:S:1:pos:R:3 gdb_122011=T pbc="F F F"
C        0.00770000       1.57500000       0.11750000
C        0.01140000       0.04640000       0.03070000
C        0.69740000      -0.48180000      -1.23340000
C        0.70380000      -2.01040000      -1.33000000
C        1.44550000      -2.54450000      -2.56150000
O        2.80070000      -2.08720000      -2.59650000
C        1.37000000      -4.07080000      -2.66730000
C        2.03970000      -4.61900000      -3.92080000
O        1.92480000      -6.03530000      -3.89000000
H        1.02850000       1.97320000       0.11780000
H       -0.51750000       2.01840000      -0.73580000
H       -0.48630000       1.92380000       1.02990000
H        0.51230000      -0.36920000       0.91550000
H       -1.02150000      -0.32550000       0.06780000
H        0.19590000      -0.06690000      -2.11900000
H        1.73110000      -0.11950000      -1.27610000
H        1.16850000      -2.43810000      -0.42800000
H       -0.32670000      -2.38910000      -1.34630000
H        0.99600000      -2.10210000      -3.46120000
H        3.24450000      -2.44380000      -1.81810000
H        1.84430000      -4.52520000      -1.78610000
H        0.32130000      -4.39050000      -2.65500000
H        1.54890000      -4.19890000      -4.81460000
H        3.08990000      -4.29720000      -3.94540000
H        2.38810000      -6.38850000      -4.65490000
