14
Properties=species:S:1:pos:R:3 gdb_46451=T pbc="F F F"
O       -0.02590000       0.04660000       0.21010000
C       -0.01100000       1.23330000       0.02470000
C       -1.24010000       2.11210000      -0.24890000
O       -0.77530000       3.40520000      -0.62380000
C        0.62630000       3.46720000      -0.50310000
C        1.18780000       3.33700000       0.88160000
C        1.18710000       2.13020000      -0.05130000
C        1.26650000       4.28340000      -1.50030000
N        1.80220000       4.93820000      -2.28760000
H       -1.83300000       1.68130000      -1.06280000
H       -1.87490000       2.17220000       0.64400000
H        2.15880000       3.77320000       1.08370000
H        0.47950000       3.37420000       1.70190000
H        2.12760000       1.72510000      -0.39930000
