23
Properties=species:S:1:pos:R:3 gdb_101148=T pbc="F F F"
C        0.04100000       1.33430000       0.15170000
O       -0.08300000      -0.05170000      -0.05670000
C        0.61950000      -0.55200000      -1.19430000
C        2.13320000      -0.63040000      -0.93770000
C        0.03030000      -1.89880000      -1.50600000
C       -0.39830000      -2.31760000      -2.69720000
C       -0.95630000      -3.71960000      -2.65590000
C       -0.51580000      -4.22840000      -1.25800000
C       -0.18420000      -2.95530000      -0.43930000
H        1.06290000       1.63760000       0.42310000
H       -0.26150000       1.90820000      -0.73900000
H       -0.62520000       1.59520000       0.97830000
H        0.44330000       0.11960000      -2.05080000
H        2.64140000      -1.03480000      -1.81790000
H        2.55480000       0.35740000      -0.73000000
H        2.34520000      -1.28000000      -0.08370000
H       -0.39540000      -1.71500000      -3.60020000
H       -2.05090000      -3.70070000      -2.76020000
H       -0.58550000      -4.35440000      -3.46910000
H       -1.27130000      -4.85560000      -0.77800000
H        0.38750000      -4.83790000      -1.36380000
H        0.68490000      -3.09270000       0.21360000
H       -1.01010000      -2.65250000       0.21660000
