17
Properties=species:S:1:pos:R:3 gdb_47633=T pbc="F F F"
O       -0.32310000      -0.06460000      -0.27120000
C       -0.09700000       1.10390000      -0.08310000
C       -1.17990000       2.16010000      -0.15360000
C       -1.45520000       2.76840000       1.23670000
C       -0.53330000       3.92970000       1.60590000
C        0.95040000       3.72760000       1.52760000
C        1.70600000       2.76270000       0.98150000
C        1.36420000       1.52460000       0.24910000
O        2.25230000       0.79220000      -0.13480000
H       -0.89100000       2.95220000      -0.85680000
H       -2.07220000       1.66500000      -0.54300000
H       -2.48660000       3.13380000       1.26090000
H       -1.39340000       1.98200000       1.99870000
H       -0.76910000       4.79680000       0.96770000
H       -0.76760000       4.26820000       2.62400000
H        1.50580000       4.54340000       1.99010000
H        2.78570000       2.86350000       1.06240000
