16
Properties=species:S:1:pos:R:3 gdb_98156=T pbc="F F F"
C       -0.28310000       1.58890000      -0.06960000
C        0.11840000       0.10880000      -0.01250000
O        0.95780000      -0.18990000       1.08950000
C       -1.08790000      -0.74970000       0.02570000
N       -2.02620000      -1.42090000       0.09490000
C        0.91160000      -0.28110000      -1.29170000
O        0.58710000       0.15070000      -2.37130000
C        2.08320000      -1.23060000      -1.14970000
O        2.65870000      -1.51150000      -2.38960000
H        0.62170000       2.20080000      -0.04010000
H       -0.82600000       1.79470000      -0.99330000
H       -0.91680000       1.84320000       0.78420000
H        0.46310000      -0.04740000       1.90410000
H        2.81030000      -0.77930000      -0.45880000
H        1.72080000      -2.14250000      -0.64730000
H        2.13130000      -1.03390000      -3.04720000
