12
Properties=species:S:1:pos:R:3 gdb_21086=T pbc="F F F"
C        0.03660000       1.42180000      -0.01830000
N        0.03940000      -0.02940000       0.01570000
N        0.16370000      -0.75030000      -1.11050000
C        0.12180000      -2.00320000      -0.66890000
N       -0.02150000      -2.13610000       0.66950000
C       -0.07070000      -0.87350000       1.07510000
C       -0.21650000      -0.41700000       2.41230000
N       -0.33370000      -0.00050000       3.48540000
H        0.97670000       1.78050000      -0.44240000
H       -0.79440000       1.77260000      -0.63340000
H       -0.07490000       1.79520000       1.00010000
H        0.19780000      -2.84420000      -1.34120000
