16
Properties=species:S:1:pos:R:3 gdb_233=T pbc="F F F"
C       -0.00460000       1.48740000       0.02000000
C        0.01920000       0.03140000      -0.01100000
C        0.04380000      -1.17280000      -0.03010000
C        0.05910000      -2.63590000      -0.07270000
C       -1.35360000      -3.21330000       0.14580000
C        0.67370000      -3.14740000      -1.39080000
H        0.60220000       1.87950000       0.84410000
H        0.38840000       1.91350000      -0.91000000
H       -1.02380000       1.86780000       0.15160000
H        0.69480000      -2.99140000       0.75070000
H       -1.77570000      -2.87110000       1.09430000
H       -2.02650000      -2.89730000      -0.65750000
H       -1.32070000      -4.30770000       0.15560000
H        1.68600000      -2.75850000      -1.52940000
H        0.71950000      -4.24140000      -1.39070000
H        0.06920000      -2.82920000      -2.24590000
