15
Properties=species:S:1:pos:R:3 gdb_4770=T pbc="F F F"
C       -0.32740000       1.38270000       0.13220000
C       -0.09230000      -0.08270000      -0.00400000
C        0.35740000      -0.79820000      -1.06110000
O        0.40660000      -2.12490000      -0.70110000
C       -0.02340000      -2.13710000       0.57560000
C       -0.10940000      -3.42900000       1.32420000
O       -0.58020000      -3.21800000       2.63090000
N       -0.33290000      -0.97290000       1.04700000
H        0.28260000       1.80230000       0.93900000
H       -0.08100000       1.90740000      -0.79420000
H       -1.37460000       1.58870000       0.37720000
H        0.66600000      -0.56160000      -2.06440000
H       -0.77370000      -4.11840000       0.77980000
H        0.88460000      -3.90280000       1.34210000
H       -0.73170000      -2.26680000       2.72030000
