25
Properties=species:S:1:pos:R:3 gdb_102646=T pbc="F F F"
C       -0.19840000       1.48370000      -0.10350000
O       -0.11960000       0.08040000       0.03710000
C       -1.37700000      -0.60350000      -0.03210000
C       -1.73480000      -0.82390000      -1.50970000
O       -0.68550000      -1.47790000      -2.19640000
C       -1.22400000      -1.92630000       0.72210000
C       -0.77120000      -1.80800000       2.18750000
C       -1.80120000      -1.08380000       3.06600000
C       -0.46110000      -3.19870000       2.75760000
H        0.81660000       1.87450000       0.00430000
H       -0.58860000       1.79110000      -1.08400000
H       -0.83450000       1.92960000       0.67540000
H       -2.15640000       0.01750000       0.43580000
H       -2.62600000      -1.45570000      -1.59000000
H       -1.97690000       0.14190000      -1.98300000
H        0.12440000      -1.04730000      -1.89310000
H       -2.18770000      -2.45220000       0.67590000
H       -0.50980000      -2.54290000       0.16550000
H        0.15470000      -1.22070000       2.19390000
H       -2.75980000      -1.61780000       3.07020000
H       -1.45450000      -1.02170000       4.10290000
H       -1.99060000      -0.06150000       2.72410000
H        0.30200000      -3.71280000       2.16380000
H       -0.09650000      -3.13210000       3.78820000
H       -1.35760000      -3.83080000       2.76430000
