16
Properties=species:S:1:pos:R:3 gdb_32771=T pbc="F F F"
C        0.13770000       1.41340000       0.15480000
O        0.04710000       0.00900000       0.10750000
C        0.56660000      -0.52260000      -1.10110000
C        0.48280000      -1.99600000      -1.09320000
C       -0.31680000      -2.91510000      -1.69880000
O       -1.33200000      -2.68830000      -2.55120000
N        0.04950000      -4.19250000      -1.33090000
C        1.04590000      -4.00280000      -0.52050000
O        1.37600000      -2.72170000      -0.32210000
H        1.18140000       1.76020000       0.08290000
H       -0.43640000       1.88990000      -0.65610000
H       -0.27500000       1.73350000       1.11430000
H       -0.00410000      -0.15250000      -1.96750000
H        1.61290000      -0.19850000      -1.23270000
H       -1.68330000      -3.55090000      -2.80300000
H        1.62610000      -4.74870000      -0.00030000
