19
Properties=species:S:1:pos:R:3 gdb_121443=T pbc="F F F"
C       -0.06370000       1.43440000       0.22030000
N       -0.09420000      -0.00240000       0.08980000
C       -1.23450000      -0.72700000       0.20930000
C       -0.99780000      -2.20210000      -0.02390000
O        0.09010000      -2.64850000      -0.29960000
N       -2.36460000      -0.17890000       0.47100000
C       -3.59530000      -0.93340000       0.65710000
C       -4.57200000      -0.02610000       1.41460000
O       -4.73100000       1.20560000       0.74750000
H        0.97160000       1.77500000       0.16310000
H       -0.64450000       1.92590000      -0.57040000
H       -0.48990000       1.74330000       1.18110000
H        0.72850000      -0.51890000      -0.17560000
H       -1.88670000      -2.85230000       0.05200000
H       -4.04140000      -1.17430000      -0.31890000
H       -3.47030000      -1.87370000       1.21320000
H       -5.55760000      -0.50030000       1.47630000
H       -4.20070000       0.11640000       2.44340000
H       -3.82940000       1.47170000       0.51810000
