17
Properties=species:S:1:pos:R:3 gdb_35277=T pbc="F F F"
C       -0.33180000      -1.11500000       0.48330000
C       -0.12150000       0.03730000       0.21250000
C        0.09170000       1.41610000      -0.13840000
O        0.74200000       2.25770000       0.82980000
C        1.43910000       1.97700000      -0.38460000
C        2.70420000       1.16030000      -0.27120000
C        3.84100000       1.98990000       0.28050000
C        5.22590000       1.81220000      -0.16780000
O        4.44550000       2.91640000      -0.62930000
H       -0.51660000      -2.13140000       0.73010000
H       -0.75010000       1.89370000      -0.63950000
H        1.49740000       2.82690000      -1.06630000
H        2.52220000       0.29770000       0.37790000
H        2.98070000       0.78640000      -1.26390000
H        3.67250000       2.39720000       1.27800000
H        6.04950000       2.06570000       0.49790000
H        5.45290000       1.05450000      -0.91730000
