15
Properties=species:S:1:pos:R:3 gdb_43814=T pbc="F F F"
O       -0.01810000       0.03450000      -0.28340000
C       -0.04140000       1.19580000      -0.02320000
C       -1.15410000       2.19860000       0.33530000
C       -0.05500000       3.22760000       0.63630000
C       -0.08880000       4.68540000       0.69760000
O        0.02760000       3.87830000       1.88180000
C        1.07480000       2.29010000       0.11700000
C        2.21590000       2.02510000       0.95700000
C        3.15390000       1.79310000       1.67130000
H       -1.81910000       2.43480000      -0.50120000
H       -1.75790000       1.90980000       1.20020000
H        0.80100000       5.25700000       0.43800000
H       -1.03530000       5.21190000       0.58350000
H        1.38890000       2.58830000      -0.89310000
H        3.98140000       1.58850000       2.30460000
