19
Properties=species:S:1:pos:R:3 gdb_62935=T pbc="F F F"
C       -0.10800000       1.61510000      -0.01010000
C        0.03940000       0.10200000       0.00090000
O       -1.22810000      -0.52630000      -0.08680000
C        1.09590000      -0.62530000      -0.88640000
C        2.43540000       0.09830000      -0.90650000
O        2.70990000       0.70320000       0.35750000
C        2.10970000       0.07580000       1.49160000
C        0.82760000      -0.64610000       1.10430000
O        1.21210000      -1.65880000       0.13060000
H        0.84860000       2.12330000       0.11410000
H       -0.54920000       1.94240000      -0.96040000
H       -0.78820000       1.92340000       0.78990000
H       -1.67220000      -0.18790000      -0.87180000
H        0.79110000      -1.01390000      -1.86330000
H        3.21630000      -0.63200000      -1.16460000
H        2.45530000       0.90720000      -1.64640000
H        2.79540000      -0.66060000       1.93530000
H        1.92820000       0.87090000       2.22400000
H        0.26890000      -1.05170000       1.95170000
