23
Properties=species:S:1:pos:R:3 gdb_86240=T pbc="F F F"
C       -0.14330000       1.57130000       0.00970000
C        0.04570000       0.05580000      -0.02440000
C        0.90350000      -0.46650000      -1.18710000
C        1.28460000      -1.89180000      -0.75900000
C        2.41100000      -2.54600000      -1.55530000
C        1.60600000      -1.72840000       0.75990000
C        0.74610000      -0.52160000       1.23540000
C        1.29920000      -3.00350000       1.50340000
O        2.11340000      -3.77320000       1.94470000
H        0.82260000       2.08420000       0.08710000
H       -0.64100000       1.93170000      -0.89680000
H       -0.75230000       1.87860000       0.86670000
H       -0.94430000      -0.41270000      -0.10850000
H        0.38330000      -0.43890000      -2.15020000
H        1.81290000       0.14300000      -1.28880000
H        0.38260000      -2.51630000      -0.84820000
H        3.31690000      -1.92980000      -1.52700000
H        2.66640000      -3.52990000      -1.14880000
H        2.12820000      -2.67820000      -2.60470000
H        2.67450000      -1.52610000       0.88050000
H        1.39200000       0.23130000       1.69810000
H        0.01600000      -0.81350000       1.99890000
H        0.20430000      -3.21120000       1.60010000
