21
Properties=species:S:1:pos:R:3 gdb_63382=T pbc="F F F"
C       -0.29890000       1.49920000      -0.03390000
C       -0.00090000      -0.00080000       0.00620000
C       -1.26650000      -0.82010000      -0.22960000
C        1.21990000      -0.40130000      -0.88520000
C        2.12390000      -0.47610000       0.38530000
N        2.92550000       0.73720000       0.54090000
C        0.83270000      -0.42080000       1.26080000
C        2.92180000      -1.70360000       0.51800000
N        3.57530000      -2.65240000       0.62730000
H        0.60840000       2.08420000       0.13510000
H       -0.71730000       1.78470000      -1.00620000
H       -1.03150000       1.76890000       0.73580000
H       -1.70770000      -0.58760000      -1.20580000
H       -1.06080000      -1.89540000      -0.20230000
H       -2.02170000      -0.60340000       0.53480000
H        1.09560000      -1.37620000      -1.36130000
H        1.55150000       0.32550000      -1.63050000
H        3.37880000       0.73840000       1.45130000
H        3.66840000       0.75300000      -0.15340000
H        0.88060000       0.29170000       2.08770000
H        0.55300000      -1.40360000       1.64620000
