21
Properties=species:S:1:pos:R:3 gdb_84655=T pbc="F F F"
C        0.00840000       1.59570000       0.01660000
C        0.02010000       0.06380000       0.01230000
C        0.69090000      -0.50700000      -1.22780000
C        1.10720000      -1.77550000      -1.28710000
C        0.88740000      -2.70640000      -0.14940000
C        1.91350000      -2.86790000       0.95500000
C        0.66400000      -2.06470000       1.20010000
C        0.72880000      -0.52760000       1.25590000
O        2.04990000      -0.01140000       1.37070000
H        1.02620000       1.99410000       0.04470000
H       -0.49100000       1.98550000      -0.87650000
H       -0.52150000       1.98040000       0.89400000
H       -1.02180000      -0.28840000       0.03790000
H        0.83980000       0.16000000      -2.07400000
H        1.59330000      -2.15900000      -2.18160000
H        0.31090000      -3.59740000      -0.38810000
H        1.99840000      -3.84090000       1.42670000
H        2.84720000      -2.32230000       0.88270000
H       -0.08990000      -2.50740000       1.84320000
H        0.22220000      -0.18780000       2.16540000
H        2.46820000      -0.11240000       0.50660000
