17
Properties=species:S:1:pos:R:3 gdb_6170=T pbc="F F F"
C        0.17430000       1.55490000      -0.19190000
C        0.11630000       0.06630000       0.00400000
N       -1.16780000      -0.50660000      -0.57500000
H       -1.25060000      -0.32210000      -1.58010000
H       -1.20200000      -1.51710000      -0.41890000
H       -1.97700000      -0.08780000      -0.10700000
C        1.28080000      -0.86670000      -0.10700000
C        0.58670000      -0.67340000       1.22650000
C        1.32050000       0.15460000       2.35640000
O        2.17240000       0.95330000       1.90940000
O        0.92470000      -0.10520000       3.49440000
H        1.06390000       1.88760000       0.35440000
H        0.25070000       1.83070000      -1.25140000
H       -0.69850000       2.05650000       0.24630000
H        1.17250000      -1.79470000      -0.66410000
H        2.25010000      -0.38140000      -0.16680000
H       -0.05510000      -1.47260000       1.59450000
