19
Properties=species:S:1:pos:R:3 gdb_2730=T pbc="F F F"
O       -0.07550000       1.45610000       0.01050000
C        0.02340000       0.03950000       0.00200000
C       -1.38770000      -0.53210000       0.01240000
C       -1.41270000      -2.06340000       0.00440000
C       -2.83300000      -2.63610000       0.01490000
C       -2.86020000      -4.15840000       0.00700000
O       -4.21790000      -4.57440000       0.01770000
H        0.81450000       1.81980000       0.00390000
H        0.56220000      -0.31690000      -0.89190000
H        0.57920000      -0.32640000       0.88150000
H       -1.91050000      -0.15100000       0.89810000
H       -1.92730000      -0.14160000      -0.85910000
H       -0.87570000      -2.43330000      -0.88040000
H       -0.85900000      -2.44270000       0.87490000
H       -3.37540000      -2.28350000       0.90070000
H       -3.39210000      -2.27410000      -0.85650000
H       -2.33520000      -4.53500000      -0.88680000
H       -2.31830000      -4.54450000       0.88660000
H       -4.23810000      -5.53570000       0.01290000
