14
Properties=species:S:1:pos:R:3 gdb_22032=T pbc="F F F"
O       -0.10760000       1.35660000       0.12450000
N        0.05560000      -0.05120000       0.08970000
C       -1.09020000      -0.63920000      -0.04670000
C       -2.39130000       0.01670000      -0.15340000
C       -3.51870000      -0.70610000      -0.29280000
N       -3.49020000      -2.08600000      -0.34020000
C       -2.28410000      -2.73220000      -0.24260000
F       -2.40210000      -4.05410000      -0.30260000
C       -1.11380000      -2.09350000      -0.10190000
H        0.80130000       1.65380000       0.22660000
H       -2.43810000       1.09430000      -0.11880000
H       -4.50280000      -0.26280000      -0.37540000
H       -4.32720000      -2.63350000      -0.44400000
H       -0.19260000      -2.65450000      -0.02990000
