21
Properties=species:S:1:pos:R:3 gdb_103493=T pbc="F F F"
C       -0.23130000       1.53980000      -0.03920000
C        0.08440000       0.04300000       0.07910000
C        0.69390000      -0.52400000      -1.18540000
O        1.88280000       0.10260000      -1.60710000
C        0.73060000      -2.00330000      -1.51090000
C       -0.21330000      -2.96850000      -0.79530000
C       -1.56100000      -2.70880000      -1.50320000
O       -1.49890000      -1.36800000      -2.00600000
C       -0.15810000      -1.07620000      -2.30900000
H        0.67460000       2.12660000      -0.22600000
H       -0.93920000       1.72760000      -0.85350000
H       -0.67650000       1.91880000       0.88520000
H        0.77950000      -0.12500000       0.91110000
H       -0.83750000      -0.49550000       0.31070000
H        1.65300000       0.97750000      -1.93900000
H        1.65990000      -2.37010000      -1.92870000
H        0.11470000      -4.00380000      -0.91990000
H       -0.27910000      -2.77250000       0.27920000
H       -1.70280000      -3.41420000      -2.33570000
H       -2.43020000      -2.77450000      -0.84290000
H        0.04320000      -0.80000000      -3.34070000
