20
Properties=species:S:1:pos:R:3 gdb_59125=T pbc="F F F"
C        0.40770000       1.48650000      -0.35850000
C       -0.00850000       0.03620000      -0.09880000
O        0.12370000      -0.77390000      -1.26540000
C        0.78350000      -0.57680000       1.05480000
C        0.94680000      -2.07080000       1.27970000
C        2.25060000      -2.48490000       0.56910000
C        2.79200000      -1.22630000      -0.07800000
N        2.30370000      -0.43540000       1.12960000
C        2.28740000      -1.78390000       1.89190000
H        1.46290000       1.54480000      -0.63660000
H       -0.19300000       1.92180000      -1.16560000
H        0.25770000       2.09990000       0.53550000
H       -1.06460000       0.02660000       0.22300000
H       -0.34750000      -0.33440000      -1.98020000
H        0.40820000      -0.10710000       1.97160000
H        0.21640000      -2.81050000       1.58440000
H        2.45390000      -3.52700000       0.35510000
H        3.88530000      -1.19960000      -0.07790000
H        2.39610000      -0.90170000      -1.04050000
H        2.73640000      -1.96810000       2.85720000
