16
Properties=species:S:1:pos:R:3 gdb_78795=T pbc="F F F"
C       -0.01750000       1.58010000       0.02490000
C        0.05680000       0.06700000       0.04310000
N        1.12680000      -0.60330000      -0.81260000
C        2.38970000      -0.61940000      -0.00250000
C        1.30480000      -1.66290000       0.17230000
C        0.62660000      -0.67080000       1.25740000
O       -0.08560000      -0.90320000       2.39650000
C        2.06330000      -0.14710000       1.37250000
O        2.68310000       0.18570000       2.34880000
H        0.93360000       2.03800000       0.31430000
H       -0.28060000       1.93820000      -0.97460000
H       -0.78610000       1.92470000       0.72400000
H       -0.88810000      -0.37880000      -0.28170000
H        3.33270000      -0.68530000      -0.52580000
H        1.34050000      -2.72920000      -0.00150000
H        0.52100000      -0.79120000       3.14380000
