20
Properties=species:S:1:pos:R:3 gdb_84231=T pbc="F F F"
C        0.07450000       1.58370000      -0.01730000
C       -0.00270000       0.05340000      -0.04760000
C        0.85430000      -0.51840000      -1.17640000
C        1.56030000      -1.57340000      -0.71390000
C        2.91870000      -1.22730000      -0.10650000
N        2.16030000      -1.12710000       1.22510000
C        0.66300000      -0.68170000       1.13780000
C        1.08580000      -2.00950000       0.68440000
C        0.77580000      -3.38010000       1.19630000
H        1.11410000       1.92680000      -0.01430000
H       -0.42610000       2.01960000      -0.88770000
H       -0.41080000       1.97530000       0.88250000
H       -1.06420000      -0.23890000      -0.04510000
H        1.28640000       0.17120000      -1.89880000
H        3.64610000      -2.03430000       0.02600000
H        3.41380000      -0.31910000      -0.46140000
H        0.31340000      -0.50870000       2.15330000
H       -0.18230000      -3.73660000       0.80270000
H        1.54680000      -4.09850000       0.89700000
H        0.71950000      -3.37420000       2.28890000
