18
Properties=species:S:1:pos:R:3 gdb_41216=T pbc="F F F"
C        0.00630000       1.38580000      -0.32250000
C        1.41540000       0.77740000      -0.07710000
C        1.58480000      -0.06410000       1.19680000
N        2.63230000      -0.69340000       1.53480000
C       -0.89880000      -0.22750000       1.20890000
C       -1.30000000      -1.41220000       2.04890000
O       -0.00280000      -1.37590000       2.70880000
C        0.33700000      -0.12960000       2.05370000
C       -1.08850000       0.40930000       0.06590000
H       -0.09910000       2.31700000       0.25010000
H       -0.07890000       1.67020000      -1.37510000
H        1.66200000       0.11980000      -0.91910000
H        2.17060000       1.57170000      -0.07570000
H        3.37380000      -0.56690000       0.83850000
H       -2.11820000      -1.24220000       2.76220000
H       -1.47530000      -2.35700000       1.52050000
H        0.35020000       0.70170000       2.77860000
H       -1.93450000       0.23730000      -0.59170000
