21
Properties=species:S:1:pos:R:3 gdb_81432=T pbc="F F F"
C       -0.07710000       1.59750000      -0.00140000
C       -0.01120000       0.07270000       0.01070000
C        1.07040000      -0.60570000      -0.88670000
C        2.08550000      -0.29800000       0.27180000
C        0.81850000      -0.60180000       1.14590000
C        0.68790000      -2.11550000       0.85790000
O        1.43470000      -2.98620000       1.65400000
C       -0.42000000      -2.65220000      -0.01520000
C        0.86040000      -2.11620000      -0.64000000
H        0.89500000       2.08190000       0.11370000
H       -0.51040000       1.94850000      -0.94470000
H       -0.72260000       1.95660000       0.80810000
H       -1.03150000      -0.29430000      -0.11490000
H        1.24010000      -0.28050000      -1.91460000
H        2.93100000      -0.98000000       0.38720000
H        2.43050000       0.73570000       0.31250000
H        0.73150000      -0.28680000       2.18800000
H        0.93390000      -3.15350000       2.45970000
H       -0.47670000      -3.73660000      -0.01500000
H       -1.38260000      -2.16820000      -0.13050000
H        1.52950000      -2.82030000      -1.12120000
