21
Properties=species:S:1:pos:R:3 gdb_59693=T pbc="F F F"
C       -0.01260000       1.43150000      -0.10630000
N        0.04320000      -0.01230000       0.06970000
C        0.78260000      -0.37770000       1.26990000
C       -1.26710000      -0.60970000       0.03530000
C       -2.10810000      -0.45400000      -1.25590000
C       -2.57740000      -1.92100000      -1.09030000
C       -1.37040000      -2.17220000      -0.12430000
C       -0.22960000      -2.79300000      -0.78080000
N        0.66210000      -3.31550000      -1.29970000
H        1.00480000       1.83030000      -0.15780000
H       -0.52000000       1.67860000      -1.04280000
H       -0.54000000       1.94980000       0.71780000
H        0.30330000      -0.01370000       2.19920000
H        0.88220000      -1.46440000       1.33580000
H        1.78990000       0.04540000       1.22000000
H       -1.88090000      -0.33250000       0.91550000
H       -2.87080000       0.32610000      -1.27430000
H       -1.45220000      -0.34390000      -2.12350000
H       -3.52260000      -2.00320000      -0.54980000
H       -2.62100000      -2.54310000      -1.98390000
H       -1.59400000      -2.72900000       0.78880000
