20
Properties=species:S:1:pos:R:3 gdb_92038=T pbc="F F F"
O        0.03100000       1.47790000      -0.11650000
C        0.00890000       0.05130000      -0.02360000
C        0.79260000      -0.47820000       1.20210000
N        0.19160000      -0.37010000       2.52760000
C       -0.52960000       0.86210000       2.86510000
C       -1.28410000      -0.39450000       2.59160000
C       -2.09840000      -0.62890000       1.34990000
C       -2.55940000       0.47140000       0.42900000
C       -1.43590000      -0.43170000      -0.00370000
H        0.94990000       1.75890000      -0.05180000
H        0.49520000      -0.37310000      -0.91520000
H        0.98790000      -1.54460000       1.02640000
H        1.77360000       0.01560000       1.23970000
H       -0.40770000       1.19510000       3.89340000
H       -0.56450000       1.65450000       2.12620000
H       -1.65080000      -0.94260000       3.45700000
H       -2.75740000      -1.48730000       1.43150000
H       -3.51780000       0.34830000      -0.06320000
H       -2.30970000       1.49440000       0.67910000
H       -1.66950000      -1.16660000      -0.76590000
