21
Properties=species:S:1:pos:R:3 gdb_101623=T pbc="F F F"
C       -0.08810000       1.58100000      -0.12400000
C        0.03110000       0.05410000      -0.03010000
C        0.73750000      -0.51300000      -1.26290000
O       -0.03340000      -0.19060000      -2.41140000
C        0.75800000      -0.41210000       1.24110000
C       -0.00810000      -0.10730000       2.54510000
O       -1.32890000      -0.64470000       2.53100000
C        0.74780000      -0.57060000       3.71310000
C        1.36540000      -0.99860000       4.65180000
H        0.89840000       2.05670000      -0.05440000
H       -0.53180000       1.86240000      -1.08130000
H       -0.71670000       1.99100000       0.67170000
H       -0.97880000      -0.37250000      -0.01460000
H        1.75360000      -0.08890000      -1.33510000
H        0.84530000      -1.60470000      -1.15600000
H        0.45140000      -0.47680000      -3.19050000
H        0.92860000      -1.49650000       1.19950000
H        1.74930000       0.05440000       1.30910000
H       -0.15470000       0.97530000       2.62970000
H       -1.25360000      -1.59980000       2.63670000
H        1.90550000      -1.35690000       5.49320000
