17
Properties=species:S:1:pos:R:3 gdb_123432=T pbc="F F F"
C        0.04760000       1.34810000       0.52180000
C       -0.06750000      -0.09330000       0.06610000
C       -1.38490000      -0.67890000      -0.27290000
N       -0.39630000      -0.40830000      -1.33610000
C        1.38900000       1.95370000       0.21950000
C        2.15790000       2.76670000       0.99210000
O        3.29110000       3.10450000       0.35970000
N        3.30470000       2.49630000      -0.89090000
C        2.18350000       1.82420000      -0.96050000
H       -0.75160000       1.93070000       0.04100000
H       -0.14050000       1.40940000       1.60050000
H        0.69280000      -0.75430000       0.47790000
H       -1.58080000      -1.73050000      -0.08600000
H       -2.26010000      -0.03730000      -0.20350000
H       -0.66090000       0.44470000      -1.82530000
H        2.03280000       3.17570000       1.98320000
H        1.97150000       1.24550000      -1.84880000
