17
Properties=species:S:1:pos:R:3 gdb_17725=T pbc="F F F"
C       -0.08570000       1.58440000       0.00970000
C        1.45180000       1.28290000      -0.03250000
C        1.30670000       0.12820000       0.98900000
N        1.89360000      -0.97710000       0.14540000
C        0.86920000      -2.06870000       0.28650000
C       -0.55610000      -1.35180000       0.28730000
C        0.00510000       0.04220000       0.14050000
C        1.22590000      -0.03010000      -0.82180000
H       -0.45230000       2.13580000       0.88060000
H       -0.53200000       1.97940000      -0.90770000
H        2.27630000       1.98820000      -0.13090000
H        1.38830000       0.15720000       2.07760000
H        0.97240000      -2.76950000      -0.54660000
H        1.05100000      -2.61540000       1.21580000
H       -1.18310000      -1.67360000      -0.54870000
H       -1.10430000      -1.51910000       1.21860000
H        1.21080000      -0.19070000      -1.90180000
