14
Properties=species:S:1:pos:R:3 gdb_49364=T pbc="F F F"
O        0.01800000      -0.05560000       0.38830000
C       -0.02080000       1.09830000       0.04900000
C        1.21000000       1.94180000      -0.03880000
C        1.45990000       2.89580000      -1.21430000
C        0.48710000       3.03720000      -2.34020000
O        0.84210000       3.08980000      -3.48880000
C        1.14780000       3.44640000       0.16760000
C       -0.11490000       4.09150000       0.42280000
N       -1.12180000       4.61860000       0.63620000
H       -0.97730000       1.60000000      -0.20210000
H        2.09340000       1.44300000       0.34440000
H        2.49300000       2.96870000      -1.53570000
H       -0.58300000       3.10590000      -2.05730000
H        1.97950000       3.89000000       0.70440000
