19
Properties=species:S:1:pos:R:3 gdb_92431=T pbc="F F F"
C       -0.24620000       1.54150000      -0.03770000
C        0.02960000       0.05040000       0.04620000
O        0.72270000      -0.38300000      -1.16350000
C        1.84150000      -1.18670000      -0.76510000
C        2.93490000      -0.25540000      -0.21770000
C        2.31390000       0.23230000       1.14440000
C        0.93200000      -0.46850000       1.18770000
C        1.31870000      -1.80710000       0.54100000
O        1.24890000      -2.93770000       0.92670000
H        0.67490000       2.12640000      -0.09930000
H       -0.83460000       1.75030000      -0.93600000
H       -0.81970000       1.87670000       0.83270000
H       -0.93310000      -0.48070000       0.09380000
H        2.11510000      -1.86450000      -1.57130000
H        3.88000000      -0.78580000      -0.06670000
H        3.10790000       0.56580000      -0.91680000
H        2.92170000      -0.09060000       1.99370000
H        2.23170000       1.31900000       1.20060000
H        0.45020000      -0.52880000       2.16150000
