17
Properties=species:S:1:pos:R:3 gdb_53454=T pbc="F F F"
C        0.11390000       1.51400000       0.08660000
C        0.04460000       0.06750000      -0.05900000
C       -0.01970000      -1.12720000      -0.17780000
C       -0.09570000      -2.58140000      -0.32290000
C       -1.43550000      -3.13120000      -0.11450000
C       -2.54090000      -3.58260000       0.05760000
C       -3.87010000      -4.12860000       0.26430000
C       -3.98340000      -5.63330000       0.12080000
O       -4.81600000      -3.41930000       0.53260000
H        0.80680000       1.80080000       0.88500000
H        0.45530000       1.99110000      -0.83840000
H       -0.86850000       1.93070000       0.33300000
H        0.25420000      -2.87850000      -1.32200000
H        0.59610000      -3.06620000       0.38090000
H       -3.31830000      -6.13020000       0.83540000
H       -5.01570000      -5.94050000       0.29420000
H       -3.66300000      -5.94070000      -0.88060000
