25
Properties=species:S:1:pos:R:3 gdb_101704=T pbc="F F F"
C        0.32140000       1.49010000      -0.23350000
C       -0.03320000       0.02690000       0.06190000
C        0.69830000      -0.46400000       1.31260000
O        2.09840000      -0.37470000       1.08490000
C       -1.54910000      -0.20600000       0.21620000
C       -2.34840000       0.08110000      -1.03940000
C       -2.44360000      -0.93960000      -2.15160000
C       -3.67280000      -0.58470000      -1.34840000
C       -4.33310000      -1.59440000      -0.43440000
H        1.40580000       1.61870000      -0.25100000
H       -0.07710000       1.81670000      -1.19800000
H       -0.08610000       2.15350000       0.54010000
H        0.32320000      -0.59060000      -0.77390000
H        0.39780000       0.14890000       2.17950000
H        0.40250000      -1.50360000       1.52850000
H        2.55160000      -0.61250000       1.89850000
H       -1.71160000      -1.24540000       0.52470000
H       -1.92510000       0.41890000       1.03970000
H       -2.28600000       1.11480000      -1.36890000
H       -2.36870000      -0.61060000      -3.18250000
H       -1.99860000      -1.91380000      -1.96730000
H       -4.38530000       0.05920000      -1.85900000
H       -3.60790000      -2.27350000       0.02280000
H       -4.88480000      -1.10360000       0.37580000
H       -5.04600000      -2.21130000      -0.99300000
