19
Properties=species:S:1:pos:R:3 gdb_89128=T pbc="F F F"
O       -0.05050000       1.44900000       0.36670000
C       -0.00700000       0.07730000       0.09150000
C       -0.63170000      -0.89880000       1.05300000
C       -1.30480000      -0.58830000      -0.27070000
C       -2.58250000       0.20430000      -0.28370000
O       -3.65560000      -0.65920000       0.06200000
C       -4.90590000      -0.02680000       0.03580000
C       -5.96160000      -1.04600000       0.42690000
O       -7.13490000      -0.79650000       0.50710000
H        0.55170000       1.62350000       1.09730000
H        0.87990000      -0.24530000      -0.45340000
H       -0.17250000      -1.87070000       1.19460000
H       -1.09600000      -0.47920000       1.93950000
H       -1.25000000      -1.35740000      -1.03510000
H       -2.51870000       1.04350000       0.42270000
H       -2.75790000       0.63360000      -1.28420000
H       -4.95920000       0.82450000       0.73670000
H       -5.15290000       0.37100000      -0.96430000
H       -5.54580000      -2.05670000       0.63470000
