19
Properties=species:S:1:pos:R:3 gdb_107951=T pbc="F F F"
C       -0.05550000       1.38180000       0.02490000
O       -0.00320000      -0.03250000       0.06860000
C        0.66700000      -0.54100000       1.15080000
C        0.36850000      -0.33020000       2.66050000
C        1.53850000      -1.33530000       2.59830000
C        0.87150000      -2.07770000       1.37980000
C        1.99960000      -2.52590000       0.46900000
C        2.87720000      -1.51980000       0.51930000
C        2.23560000      -0.51500000       1.45390000
H        0.94980000       1.82060000      -0.04260000
H       -0.62160000       1.65230000      -0.86860000
H       -0.56070000       1.79550000       0.90850000
H        0.59290000       0.65260000       3.08410000
H       -0.58890000      -0.71150000       3.02650000
H        2.04870000      -1.81450000       3.43340000
H       -0.00010000      -2.71150000       1.54680000
H        2.04290000      -3.45210000      -0.08610000
H        3.82360000      -1.40650000       0.00950000
H        2.73400000       0.42420000       1.69700000
