16
Properties=species:S:1:pos:R:3 gdb_43304=T pbc="F F F"
O        0.01120000      -0.04010000      -0.06930000
C       -0.03700000       1.17010000       0.00950000
C       -1.28250000       1.95230000       0.10400000
C       -1.13930000       3.28250000       0.12880000
C        0.23530000       3.86960000       0.09410000
C        1.28210000       3.29420000      -0.90220000
C        2.32690000       3.78650000       0.11080000
N        1.26240000       3.17580000       1.03760000
C        1.22050000       2.02200000      -0.00830000
H       -2.23290000       1.43210000       0.13210000
H       -1.98960000       3.95560000       0.18080000
H        0.23410000       4.95470000       0.22230000
H        1.28050000       3.35870000      -1.99580000
H        3.28560000       3.26470000       0.15420000
H        2.44920000       4.86510000       0.24300000
H        2.10480000       1.38140000       0.02090000
