23
Properties=species:S:1:pos:R:3 gdb_15829=T pbc="F F F"
C        0.05210000       1.52520000       0.05480000
C        0.02970000      -0.00510000      -0.00820000
C       -1.39570000      -0.56800000      -0.02740000
C       -1.51400000      -2.09920000       0.00140000
C       -2.98200000      -2.52500000       0.09080000
N       -0.92740000      -2.67820000      -1.21250000
C        0.47560000      -3.07570000      -1.16250000
C       -0.60220000      -4.09990000      -1.16350000
H        1.07650000       1.91080000       0.06380000
H       -0.46040000       1.96330000      -0.80900000
H       -0.45060000       1.89300000       0.95650000
H        0.57020000      -0.33840000      -0.90050000
H        0.57350000      -0.41310000       0.85470000
H       -1.94410000      -0.17310000       0.83860000
H       -1.91920000      -0.20250000      -0.92050000
H       -0.98570000      -2.47560000       0.90020000
H       -3.53440000      -2.17080000      -0.78520000
H       -3.07640000      -3.61420000       0.13140000
H       -3.45140000      -2.11020000       0.98800000
H        1.05820000      -2.88010000      -2.05860000
H        1.01650000      -2.93170000      -0.22860000
H       -0.77400000      -4.63310000      -0.22910000
H       -0.82730000      -4.67150000      -2.05940000
