16
Properties=species:S:1:pos:R:3 gdb_125291=T pbc="F F F"
C       -0.01900000       1.46500000       0.03410000
C       -0.00020000      -0.02770000      -0.01700000
C       -0.03830000      -0.80470000      -1.12090000
C        0.00030000      -2.20010000      -0.70690000
N       -0.00870000      -3.37490000      -1.28110000
O        0.05310000      -4.27490000      -0.19900000
C        0.09500000      -3.58610000       0.96730000
C        0.06470000      -2.26100000       0.71710000
C        0.06910000      -0.86580000       1.26490000
H        0.87970000       1.85620000       0.52770000
H       -0.07360000       1.89950000      -0.96700000
H       -0.87630000       1.83130000       0.61290000
H       -0.08910000      -0.45400000      -2.14280000
H        0.14350000      -4.19660000       1.85560000
H        0.97050000      -0.62670000       1.84380000
H       -0.78400000      -0.65190000       1.92180000
