14
Properties=species:S:1:pos:R:3 gdb_7039=T pbc="F F F"
C        0.09990000       1.46290000       0.00860000
C        0.02710000       0.01240000      -0.00010000
C       -0.05500000      -1.19190000      -0.00720000
C       -0.14280000      -2.63710000      -0.01560000
O       -1.19630000      -3.22820000      -0.01570000
C        1.22480000      -3.34130000      -0.02440000
C        1.15390000      -4.79150000      -0.03300000
C        1.10700000      -5.99110000      -0.04020000
H        1.13640000       1.81430000      -0.01550000
H       -0.42230000       1.88160000      -0.85850000
H       -0.37600000       1.86790000       0.90830000
H        1.77960000      -2.96770000      -0.89600000
H        1.78540000      -2.97840000       0.84790000
H        1.05670000      -7.05160000      -0.04650000
