16
Properties=species:S:1:pos:R:3 gdb_25157=T pbc="F F F"
O       -0.10210000       0.10500000      -0.74100000
C       -0.03330000       1.27240000      -0.44670000
O       -1.12090000       2.11840000      -0.36630000
C       -0.67140000       3.36950000      -0.00730000
C        0.65740000       3.34040000       0.14080000
N        1.07080000       2.03550000      -0.13090000
C        2.43290000       1.56630000      -0.08760000
C        2.79090000       0.18950000       0.40050000
C        2.96120000       0.54880000      -1.06100000
H       -1.40920000       4.14440000       0.09690000
H        1.35390000       4.11510000       0.41210000
H        3.09490000       2.37850000       0.18900000
H        3.66730000       0.09490000       1.03180000
H        1.97370000      -0.48100000       0.63200000
H        2.25020000       0.10310000      -1.74450000
H        3.95720000       0.70690000      -1.45910000
