17
Properties=species:S:1:pos:R:3 gdb_48984=T pbc="F F F"
O       -0.60330000       0.76590000       0.59160000
C        0.23730000       0.96580000      -0.24300000
C        1.40790000       1.90980000      -0.03860000
C        1.58730000       2.67810000       1.26750000
C        2.87000000       3.32850000       0.70690000
C        3.65050000       2.05900000       0.31610000
O        2.61600000       1.17440000      -0.17900000
C        2.30550000       3.92470000      -0.59690000
O        1.35570000       2.92260000      -1.03440000
H        0.22460000       0.47280000      -1.23660000
H        0.77500000       3.37840000       1.46540000
H        1.74950000       2.02650000       2.12680000
H        3.41090000       4.02920000       1.34190000
H        4.38720000       2.23280000      -0.47610000
H        4.15120000       1.59090000       1.17190000
H        1.78350000       4.87530000      -0.43520000
H        3.06710000       4.06400000      -1.37210000
