15
Properties=species:S:1:pos:R:3 gdb_66271=T pbc="F F F"
C       -0.11570000       1.65270000       0.08110000
C        0.06010000       0.13970000       0.01240000
O        0.96310000      -0.19980000      -1.04660000
C        1.64140000      -1.35240000      -0.62440000
O        1.75250000      -1.26950000       0.79960000
C        0.80850000      -0.41000000       1.25460000
O        0.63380000      -0.14250000       2.40290000
C       -1.21660000      -0.57010000      -0.12850000
C       -2.25210000      -1.16770000      -0.24690000
H        0.86390000       2.13440000       0.12510000
H       -0.65440000       2.00890000      -0.79900000
H       -0.68150000       1.90680000       0.97980000
H        1.09270000      -2.27070000      -0.87620000
H        2.64240000      -1.35970000      -1.05990000
H       -3.17210000      -1.68970000      -0.34890000
