17
Properties=species:S:1:pos:R:3 gdb_106593=T pbc="F F F"
O        0.01740000       1.40700000      -0.09890000
C        0.03180000      -0.00230000       0.00980000
C       -1.37040000      -0.55830000       0.09900000
O       -2.12140000      -0.21030000      -1.08870000
C       -3.34020000      -0.84550000      -0.66620000
C       -2.80790000      -2.27460000      -0.38620000
C       -1.58170000      -2.09520000       0.09290000
C       -3.54730000      -0.14930000       0.70410000
C       -2.32080000       0.03060000       1.17980000
H       -0.64570000       1.61690000      -0.76770000
H        0.54940000      -0.47290000      -0.84050000
H        0.58920000      -0.25070000       0.91980000
H       -4.12760000      -0.73830000      -1.41050000
H       -3.37430000      -3.18690000      -0.50630000
H       -0.87470000      -2.82060000       0.46930000
H       -4.50470000       0.06320000       1.15730000
H       -1.99400000       0.44240000       2.12330000
