17
Properties=species:S:1:pos:R:3 gdb_28515=T pbc="F F F"
N       -0.02540000       1.41480000       0.21290000
C       -0.00410000       0.01730000       0.05420000
C       -1.19100000      -0.71660000       0.00280000
C       -1.14260000      -2.10810000      -0.08520000
C        0.06770000      -2.78020000      -0.12650000
O        0.18360000      -4.15200000      -0.20670000
C        1.27360000      -2.05770000      -0.08080000
N        2.48390000      -2.74600000      -0.18150000
C        1.21640000      -0.66740000       0.01110000
H        0.78330000       1.87800000      -0.17890000
H       -0.87110000       1.84370000      -0.13730000
H       -2.14890000      -0.20850000       0.03770000
H       -2.06880000      -2.67710000      -0.12200000
H       -0.69560000      -4.53970000      -0.17230000
H        2.40860000      -3.72120000       0.07080000
H        3.26130000      -2.29430000       0.27770000
H        2.14680000      -0.10650000       0.05100000
