20
Properties=species:S:1:pos:R:3 gdb_68750=T pbc="F F F"
C       -0.02980000       1.52540000      -0.06800000
C       -0.02910000       0.02090000       0.04470000
C        1.21370000      -0.77740000      -0.24190000
C        0.64660000      -0.75060000       1.16940000
C        1.41300000      -0.17490000       2.33180000
C       -0.24530000      -1.93620000       1.45840000
O       -0.11020000      -2.74790000       2.34950000
N       -1.24920000      -1.92600000       0.52110000
C       -1.34010000      -0.70840000      -0.26450000
H        0.93940000       1.94640000       0.21330000
H       -0.23810000       1.84140000      -1.09710000
H       -0.79180000       1.97510000       0.57880000
H        1.14310000      -1.69390000      -0.81990000
H        2.13060000      -0.21660000      -0.39610000
H        2.09160000       0.62100000       2.01300000
H        0.73980000       0.23420000       3.09240000
H        2.00410000      -0.96270000       2.80790000
H       -1.98600000      -2.61110000       0.56500000
H       -2.20070000      -0.09410000       0.03930000
H       -1.44690000      -0.92470000      -1.33540000
