23
Properties=species:S:1:pos:R:3 gdb_105066=T pbc="F F F"
C       -1.80790000       0.29830000       1.76780000
C       -0.86990000      -0.63830000       1.03940000
C        0.00430000      -0.13410000      -0.07930000
C        0.63680000      -0.58430000       1.22300000
C        1.34540000       0.35270000       2.18070000
C        1.63410000       1.74870000       1.65220000
O        2.35550000       2.48620000       2.62850000
C        1.07750000       0.19860000       3.66300000
C        2.39080000      -0.26260000       3.08400000
H       -1.36480000       1.28810000       1.91020000
H       -2.74000000       0.42970000       1.20670000
H       -2.06860000      -0.08690000       2.75940000
H       -1.27210000      -1.63940000       0.90290000
H        0.15050000      -0.74930000      -0.96070000
H       -0.03440000       0.92880000      -0.29320000
H        1.11620000      -1.55760000       1.15930000
H        2.20930000       1.66450000       0.71600000
H        0.69090000       2.26400000       1.40810000
H        2.51520000       3.36660000       2.27880000
H        1.09200000       1.09380000       4.27300000
H        0.35640000      -0.55370000       3.96310000
H        2.56690000      -1.32970000       2.99170000
H        3.26880000       0.32910000       3.31110000
