19
Properties=species:S:1:pos:R:3 gdb_69160=T pbc="F F F"
C       -0.00100000       1.53120000       0.03450000
C        0.00660000       0.03170000      -0.00380000
C       -0.83930000      -0.84190000       0.84700000
C        0.66930000      -0.95640000       1.02800000
C        1.26240000      -1.68570000      -0.11870000
O        2.17960000      -2.45410000      -0.24780000
C        0.56340000      -0.78990000      -1.19270000
C       -0.38690000      -1.38480000      -2.21950000
O        1.59120000      -0.04630000      -1.83570000
H        0.95190000       1.92680000      -0.32400000
H       -0.79560000       1.93240000      -0.60550000
H       -0.17740000       1.89690000       1.05080000
H       -1.33220000      -0.34580000       1.67790000
H       -1.40590000      -1.67380000       0.44070000
H        1.14230000      -0.76490000       1.98370000
H       -1.23450000      -1.89980000      -1.75940000
H       -0.76870000      -0.59550000      -2.87440000
H        0.14940000      -2.11060000      -2.83990000
H        2.28540000      -0.67400000      -2.07190000
