19
Properties=species:S:1:pos:R:3 gdb_91098=T pbc="F F F"
O       -0.34710000       1.37670000       0.77510000
C       -0.07130000       0.13050000       0.17730000
C        0.51100000      -0.98140000       1.10710000
C       -0.82720000      -1.77330000       1.01000000
C       -1.82950000      -1.68820000       2.15140000
C       -2.04930000      -0.35290000       2.85270000
C       -2.91160000      -0.74840000       1.69070000
O       -2.59760000      -0.22170000       0.42250000
C       -1.36250000      -0.73640000      -0.02590000
H        0.49460000       1.80720000       0.95680000
H        0.49400000       0.26350000      -0.75550000
H        1.36960000      -1.50610000       0.68010000
H        0.77190000      -0.63690000       2.11070000
H       -0.73250000      -2.80310000       0.66020000
H       -2.07000000      -2.59680000       2.69040000
H       -2.49150000      -0.39400000       3.84300000
H       -1.34680000       0.45550000       2.68990000
H       -3.97280000      -0.94000000       1.80420000
H       -1.47960000      -1.07250000      -1.06140000
