14
Properties=species:S:1:pos:R:3 gdb_2515=T pbc="F F F"
C        0.06570000       1.51890000       0.08480000
C        0.16670000      -0.00310000      -0.02030000
C        0.67390000      -0.48610000      -1.39320000
C        0.97000000      -1.99830000      -1.42590000
O        1.06030000      -2.67020000      -0.43720000
C       -0.22910000      -0.14610000      -2.49380000
N       -0.95330000       0.09580000      -3.36160000
H        1.04010000       1.99520000      -0.06990000
H       -0.62860000       1.92710000      -0.65610000
H       -0.29280000       1.80950000       1.07610000
H        0.85300000      -0.40310000       0.73080000
H       -0.80600000      -0.46650000       0.17290000
H        1.63990000      -0.00280000      -1.61550000
H        1.11930000      -2.41750000      -2.44250000
