18
Properties=species:S:1:pos:R:3 gdb_108984=T pbc="F F F"
O        0.10800000       1.34610000      -0.12110000
C        0.00660000      -0.04990000      -0.07500000
C       -1.43200000      -0.49300000      -0.01690000
N       -2.37880000       0.35600000      -0.01260000
C       -3.71470000      -0.24470000       0.04740000
C       -3.71200000      -1.34750000       1.15030000
C       -2.99510000      -2.21120000       0.08370000
C       -3.77920000      -1.41160000      -0.98560000
O       -1.59890000      -1.83500000       0.02850000
H       -0.80700000       1.66930000      -0.10060000
H        0.47610000      -0.51220000      -0.95760000
H        0.53020000      -0.45810000       0.80390000
H       -4.48290000       0.52720000       0.04830000
H       -3.18190000      -1.13640000       2.08090000
H       -4.71300000      -1.73170000       1.35540000
H       -3.01320000      -3.29930000       0.11690000
H       -4.79030000      -1.80550000      -1.10400000
H       -3.30890000      -1.25760000      -1.95850000
