21
Properties=species:S:1:pos:R:3 gdb_66847=T pbc="F F F"
C       -0.02750000       1.52150000       0.00500000
C        0.02230000       0.01620000      -0.02190000
C        0.65880000      -0.74870000      -1.21370000
C        0.93630000      -2.09170000      -0.60970000
C        1.25470000      -1.95710000       0.87000000
C        0.35770000      -0.79200000       1.31400000
C       -1.12670000      -1.25480000       1.38340000
C       -1.25050000      -0.88880000      -0.10880000
C       -0.46910000      -1.77460000      -1.10410000
H        0.97540000       1.95060000       0.12260000
H       -0.45170000       1.92120000      -0.92330000
H       -0.64240000       1.88670000       0.83540000
H        1.15130000      -0.32700000      -2.08160000
H        1.47550000      -2.82040000      -1.20720000
H        1.05250000      -2.86630000       1.44780000
H        2.31800000      -1.71630000       0.99470000
H        0.74840000      -0.23340000       2.16700000
H       -1.31020000      -2.29100000       1.68540000
H       -1.73770000      -0.59230000       2.00420000
H       -2.19180000      -0.50270000      -0.50630000
H       -0.91660000      -2.37390000      -1.88870000
