20
Properties=species:S:1:pos:R:3 gdb_16233=T pbc="F F F"
C       -0.60690000       1.25720000       0.04390000
C        0.11130000      -0.08560000      -0.06900000
C        1.24750000      -0.10730000      -1.13190000
C        2.28220000      -1.03000000      -0.53280000
C        2.02770000      -1.28810000       0.74970000
C        0.78770000      -0.61340000       1.21720000
C        0.78760000       0.13150000       2.54080000
C       -0.00920000      -1.13670000       2.38700000
H        0.08710000       2.05600000       0.32630000
H       -1.06160000       1.53270000      -0.91360000
H       -1.40970000       1.22930000       0.78920000
H       -0.62550000      -0.84310000      -0.36700000
H        0.88600000      -0.44050000      -2.11160000
H        1.66900000       0.89750000      -1.28780000
H        3.14210000      -1.38990000      -1.08640000
H        2.64200000      -1.89120000       1.41060000
H        1.69430000       0.10310000       3.13610000
H        0.24700000       1.06950000       2.60330000
H       -1.09070000      -1.05040000       2.33350000
H        0.33820000      -2.03470000       2.88810000
