23
Properties=species:S:1:pos:R:3 gdb_95499=T pbc="F F F"
C        0.13670000       1.62420000      -0.01900000
C        0.00580000       0.09400000      -0.02410000
C        0.67120000      -0.50120000      -1.28360000
C        0.24710000      -1.92760000      -1.63600000
O        0.80560000      -2.18050000      -2.92380000
C        0.68100000      -3.01090000      -0.64160000
C        0.03350000      -2.90880000       0.75340000
C        0.55990000      -1.77700000       1.60260000
C        0.55220000      -0.48840000       1.26360000
H        1.19080000       1.92520000      -0.00420000
H       -0.32430000       2.06510000      -0.90800000
H       -0.34550000       2.05780000       0.86320000
H       -1.06800000      -0.14570000      -0.07970000
H        0.41500000       0.11960000      -2.14990000
H        1.76260000      -0.46480000      -1.18140000
H       -0.85680000      -1.94680000      -1.69860000
H        0.59770000      -3.08940000      -3.16360000
H        0.41010000      -3.98420000      -1.07590000
H        1.77330000      -2.99720000      -0.55180000
H       -1.05560000      -2.81160000       0.62910000
H        0.18860000      -3.85490000       1.28100000
H        0.98440000      -2.05290000       2.56520000
H        0.97350000       0.22950000       1.96540000
