16
Properties=species:S:1:pos:R:3 gdb_55661=T pbc="F F F"
C       -0.02400000       1.51220000       0.07260000
C        0.28900000       0.02820000       0.01000000
O        0.95650000      -0.54630000       0.84900000
N       -0.24810000      -0.62660000      -1.07190000
C       -0.21650000      -2.06880000      -1.14320000
C       -1.62340000      -2.62480000      -1.41240000
O       -2.58200000      -1.92470000      -1.59680000
C        0.67590000      -2.60770000      -2.17450000
C        1.35550000      -3.08420000      -3.04320000
H       -0.17680000       1.95140000      -0.91660000
H       -0.93540000       1.66350000       0.66090000
H        0.79470000       2.02240000       0.58080000
H       -0.96910000      -0.17730000      -1.61680000
H        0.11950000      -2.42980000      -0.15970000
H       -1.67510000      -3.73100000      -1.45170000
H        1.98210000      -3.49080000      -3.79860000
