15
Properties=species:S:1:pos:R:3 gdb_1062=T pbc="F F F"
C       -0.17810000       1.55940000       0.05320000
C        0.06960000       0.04400000      -0.01100000
C        0.71290000      -0.49290000       1.23030000
C        0.21650000      -1.39580000       2.13580000
N        1.19730000      -1.53950000       3.09540000
C        2.23020000      -0.72860000       2.73460000
N        1.97450000      -0.08490000       1.62070000
H        0.76000000       2.08810000       0.24170000
H       -0.60170000       1.92860000      -0.88620000
H       -0.87230000       1.80890000       0.86230000
H       -0.87460000      -0.48480000      -0.18450000
H        0.71450000      -0.17540000      -0.87100000
H       -0.71380000      -1.93690000       2.18660000
H        1.15640000      -2.13500000       3.90490000
H        3.13500000      -0.65340000       3.31950000
