20
Properties=species:S:1:pos:R:3 gdb_67455=T pbc="F F F"
C       -0.01470000       1.50770000       0.10630000
C       -0.00270000       0.01030000      -0.04160000
C        0.59260000      -0.85570000      -1.17940000
C        1.44870000      -1.55810000      -0.11480000
N        0.76760000      -0.77930000       0.97250000
C       -0.19650000      -1.53170000       1.78850000
C       -1.51840000      -1.67830000       0.96670000
C       -1.29580000      -0.81090000      -0.27540000
O       -0.66420000      -1.53470000      -1.37120000
H        1.00410000       1.90260000       0.15780000
H       -0.53150000       1.98270000      -0.73410000
H       -0.53020000       1.79940000       1.02900000
H        1.03260000      -0.51060000      -2.11710000
H        1.31160000      -2.64430000      -0.07580000
H        2.51950000      -1.32820000      -0.15340000
H        0.23750000      -2.49280000       2.07800000
H       -0.39030000      -0.97810000       2.71440000
H       -1.71400000      -2.70880000       0.65860000
H       -2.38560000      -1.33480000       1.53950000
H       -2.19250000      -0.28980000      -0.62730000
