20
Properties=species:S:1:pos:R:3 gdb_85335=T pbc="F F F"
C       -0.00010000       1.56170000       0.02700000
C        0.02100000       0.03120000       0.00160000
C        0.71370000      -0.52070000      -1.25030000
C        0.78420000      -2.04930000      -1.27580000
O        0.79850000      -2.65790000      -2.33390000
C        0.85750000      -2.71580000       0.01530000
C        0.84180000      -2.04540000       1.19560000
N        1.02700000      -2.66150000       2.40510000
C        0.69440000      -0.54420000       1.25550000
H        1.01740000       1.97000000       0.03070000
H       -0.51430000       1.96010000      -0.85320000
H       -0.51550000       1.94080000       0.91660000
H       -1.01730000      -0.32820000      -0.00570000
H        0.21660000      -0.19300000      -2.16770000
H        1.74490000      -0.13890000      -1.29580000
H        0.95160000      -3.79800000      -0.00790000
H        0.99900000      -3.66880000       2.43340000
H        0.68430000      -2.20310000       3.23360000
H        1.69230000      -0.09830000       1.38040000
H        0.12580000      -0.26650000       2.15330000
