15
Properties=species:S:1:pos:R:3 gdb_73075=T pbc="F F F"
O       -0.11880000       1.42130000      -0.40630000
C        0.00770000       0.10580000      -0.02900000
C        0.66600000      -0.99150000      -0.86840000
O       -0.35270000      -1.95190000      -0.46060000
C       -1.04990000      -0.94970000       0.26540000
C       -0.18360000      -0.39830000       1.37360000
O        0.82760000      -1.14100000       2.00900000
C        0.51260000      -2.39690000       2.42290000
O        1.30770000      -3.09660000       2.96940000
H        0.55780000       1.93990000       0.04420000
H        0.59520000      -0.79310000      -1.94160000
H        1.67440000      -1.31180000      -0.59120000
H       -2.13350000      -0.96530000       0.26590000
H       -0.68810000       0.31060000       2.02690000
H       -0.53370000      -2.66770000       2.20380000
