21
Properties=species:S:1:pos:R:3 gdb_111852=T pbc="F F F"
C       -0.04570000       1.53100000      -0.21450000
C       -0.00510000       0.08330000       0.29080000
C       -1.34700000      -0.61090000       0.15060000
C       -1.85680000      -1.27700000      -1.12420000
C       -0.84720000      -1.73430000      -2.15560000
O        0.15840000      -2.46630000      -1.44420000
C       -0.39650000      -2.99210000      -0.24820000
C       -1.56560000      -2.09140000       0.12460000
O       -2.53940000      -2.60830000       0.97510000
H        0.92580000       2.01970000      -0.09210000
H       -0.31070000       1.57160000      -1.27640000
H       -0.78830000       2.12250000       0.33260000
H        0.76550000      -0.47530000      -0.24740000
H        0.28480000       0.07640000       1.34950000
H       -2.15320000      -0.10990000       0.68410000
H       -2.87650000      -1.08620000      -1.43840000
H       -1.33960000      -2.37280000      -2.90670000
H       -0.33110000      -0.92640000      -2.68590000
H       -0.77600000      -4.02010000      -0.39250000
H        0.40230000      -3.03030000       0.50020000
H       -2.93240000      -3.38030000       0.55090000
