22
Properties=species:S:1:pos:R:3 gdb_118206=T pbc="F F F"
C        0.15740000       1.38190000      -0.09320000
O        0.06350000      -0.02040000      -0.06030000
C        0.71350000      -0.58710000       1.05290000
C        0.58740000      -2.10230000       1.01750000
C       -0.84910000      -2.59120000       0.86400000
O        1.39250000      -2.55480000      -0.09380000
C        1.92190000      -3.79210000      -0.02920000
C        2.71660000      -4.07270000      -1.28030000
N        1.73570000      -4.55260000       0.97230000
H        1.20420000       1.72090000      -0.15170000
H       -0.37460000       1.72550000      -0.98370000
H       -0.30140000       1.84480000       0.79570000
H        1.78060000      -0.31050000       1.06270000
H        0.26630000      -0.21930000       1.99310000
H        1.02270000      -2.50770000       1.93580000
H       -1.28050000      -2.21340000      -0.06490000
H       -0.87160000      -3.68230000       0.86760000
H       -1.45830000      -2.23140000       1.69970000
H        2.06550000      -4.01470000      -2.15780000
H        3.49690000      -3.31640000      -1.40840000
H        3.17650000      -5.06140000      -1.24030000
H        2.22270000      -5.43590000       0.84360000
