17
Properties=species:S:1:pos:R:3 gdb_133=T pbc="F F F"
C       -0.04070000       1.56660000       0.04870000
C        0.00170000       0.03690000       0.00200000
C        0.71010000      -0.50960000      -1.24220000
C        0.75840000      -2.04020000      -1.29880000
C        1.46780000      -2.57550000      -2.54550000
H        0.96980000       1.99050000       0.04890000
H       -0.56790000       1.97450000      -0.82110000
H       -0.55250000       1.92730000       0.94660000
H        0.50500000      -0.34390000       0.90070000
H       -1.02170000      -0.35990000       0.03850000
H        0.20720000      -0.12890000      -2.14260000
H        1.73450000      -0.11250000      -1.28030000
H        1.26140000      -2.41930000      -0.39910000
H       -0.26540000      -2.43560000      -1.26090000
H        0.96610000      -2.24080000      -3.46040000
H        2.50470000      -2.22420000      -2.59210000
H        1.48680000      -3.66990000      -2.55830000
