19
Properties=species:S:1:pos:R:3 gdb_54787=T pbc="F F F"
C       -0.51130000       1.47250000      -0.02130000
C       -0.13410000       0.00620000       0.10930000
O        0.13840000      -0.48380000       1.18440000
C       -0.12230000      -0.76940000      -1.18900000
C        0.51360000      -2.20020000      -1.19010000
C       -0.82630000      -2.71770000      -0.57640000
C       -1.39280000      -1.64280000      -1.52470000
O       -1.08180000      -2.13540000      -2.83090000
C        0.29170000      -2.57410000      -2.65930000
H        0.27770000       2.01140000      -0.55940000
H       -1.42920000       1.58940000      -0.60790000
H       -0.63760000       1.91320000       0.96810000
H        0.15610000      -0.10730000      -2.01520000
H        1.48360000      -2.39910000      -0.73890000
H       -1.12150000      -3.74920000      -0.78270000
H       -0.91370000      -2.47400000       0.47920000
H       -2.41280000      -1.26150000      -1.50510000
H        0.94130000      -2.03750000      -3.36000000
H        0.36860000      -3.65050000      -2.85050000
