17
Properties=species:S:1:pos:R:3 gdb_2442=T pbc="F F F"
C       -0.01870000       1.53740000      -0.04140000
C        1.52850000       1.43280000       0.01140000
C        1.33800000       0.10510000       0.80130000
C       -0.00250000      -0.01310000       0.01890000
C        0.29880000      -0.55670000      -1.38340000
O        1.59780000      -0.18350000      -1.82680000
C        2.04680000       1.09420000      -1.39190000
H       -0.43530000       1.98310000       0.86590000
H       -0.47000000       2.01070000      -0.92020000
H        2.10020000       2.25110000       0.45590000
H        2.08220000      -0.68360000       0.66800000
H        1.17130000       0.28700000       1.86560000
H       -0.84980000      -0.53500000       0.47020000
H        0.29060000      -1.65270000      -1.39110000
H       -0.47260000      -0.20980000      -2.09200000
H        1.74100000       1.88070000      -2.10270000
H        3.14150000       1.03970000      -1.40500000
