19
Properties=species:S:1:pos:R:3 gdb_96192=T pbc="F F F"
O       -0.06400000       1.44610000       0.09410000
C       -0.00970000       0.03200000       0.08180000
C        0.79740000      -0.54920000       1.24540000
O        0.75270000      -1.96480000       1.18920000
C       -0.53600000      -2.44760000       1.52630000
C       -1.65110000      -1.95320000       0.57930000
C       -2.83740000      -1.32220000       1.33770000
O       -2.26820000      -0.00510000       1.17990000
C       -1.43320000      -0.49480000       0.10250000
H        0.83050000       1.78160000      -0.02400000
H        0.44210000      -0.34750000      -0.85070000
H        1.85130000      -0.26090000       1.16960000
H        0.39690000      -0.17190000       2.19850000
H       -0.46670000      -3.53840000       1.50140000
H       -0.77260000      -2.14910000       2.56020000
H       -1.88040000      -2.68590000      -0.19630000
H       -3.79980000      -1.41110000       0.81450000
H       -2.97010000      -1.59530000       2.39050000
H       -1.91680000      -0.28680000      -0.86290000
