20
Properties=species:S:1:pos:R:3 gdb_108828=T pbc="F F F"
C       -0.24080000       1.59250000       0.07570000
C        0.02070000       0.08700000      -0.00950000
C        0.67340000      -0.39710000      -1.28910000
C        1.73330000      -1.16260000      -1.02620000
C        2.62890000      -1.86520000      -1.99170000
O        2.15830000      -1.66550000      -3.31140000
C        1.95520000      -1.22090000       0.45200000
C        2.27520000       0.09020000       1.08710000
N        0.89530000      -0.41250000       1.08910000
H        0.67480000       2.17300000      -0.06980000
H       -0.95600000       1.89570000      -0.69520000
H       -0.66160000       1.84880000       1.05220000
H       -0.94870000      -0.41770000       0.12060000
H        0.31680000      -0.14480000      -2.27950000
H        3.66080000      -1.48960000      -1.87000000
H        2.66350000      -2.93890000      -1.73320000
H        2.75670000      -2.11610000      -3.91370000
H        2.23570000      -2.15770000       0.92920000
H        2.73020000       0.12980000       2.07360000
H        2.55180000       0.90110000       0.41810000
