23
Properties=species:S:1:pos:R:3 gdb_117883=T pbc="F F F"
C       -0.10950000       1.57410000      -0.04400000
C        0.06780000       0.04530000       0.00050000
C        0.72750000      -0.48920000      -1.18730000
C        1.28180000      -0.90190000      -2.17470000
C        1.92900000      -1.42300000      -3.38010000
C        1.97390000      -2.96570000      -3.34660000
C        1.23090000      -0.86990000      -4.64410000
C        1.94980000      -1.19910000      -5.94760000
O        1.28010000      -0.50200000      -6.98820000
H        0.85920000       2.07490000      -0.12410000
H       -0.71290000       1.86970000      -0.90650000
H       -0.60740000       1.92840000       0.86380000
H        0.64420000      -0.22940000       0.89360000
H       -0.91350000      -0.43200000       0.11980000
H        2.96780000      -1.05970000      -3.38920000
H        2.54620000      -3.36390000      -4.18940000
H        2.44140000      -3.31610000      -2.42290000
H        0.96150000      -3.37960000      -3.39070000
H        0.20370000      -1.24880000      -4.69110000
H        1.16050000       0.21980000      -4.56600000
H        3.00640000      -0.88880000      -5.87610000
H        1.94110000      -2.28380000      -6.13380000
H        1.69180000      -0.74170000      -7.82340000
