23
Properties=species:S:1:pos:R:3 gdb_76336=T pbc="F F F"
C       -0.90160000       0.94950000      -0.44510000
C        0.06490000      -0.19910000      -0.19800000
C        1.36080000      -0.26370000      -1.07130000
O        1.72910000       0.95100000      -1.69390000
C        2.20530000      -0.51610000       0.22070000
C        2.55260000      -2.00020000       0.37140000
C        3.44110000       0.35900000       0.40120000
C        0.95750000      -0.13910000       1.08490000
O        1.10200000       1.14470000       1.65910000
H       -0.38160000       1.90900000      -0.40330000
H       -1.38150000       0.86010000      -1.42680000
H       -1.70470000       0.95990000       0.30100000
H       -0.46720000      -1.15550000      -0.24230000
H        1.38690000      -1.08990000      -1.79720000
H        1.11380000       1.11500000      -2.41540000
H        3.29560000      -2.30230000      -0.37500000
H        2.97020000      -2.20180000       1.36410000
H        1.67410000      -2.64320000       0.24410000
H        3.19850000       1.41530000       0.29500000
H        3.87510000       0.20340000       1.39460000
H        4.20040000       0.10300000      -0.34540000
H        0.70310000      -0.87860000       1.85850000
H        0.27180000       1.37480000       2.08790000
