19
Properties=species:S:1:pos:R:3 gdb_85416=T pbc="F F F"
C        0.18560000       1.61020000       0.02870000
C        0.02390000       0.08650000      -0.04900000
O       -1.35220000      -0.25830000      -0.13500000
C        0.76370000      -0.50290000      -1.25750000
C        2.18450000      -0.78990000      -0.76730000
O        3.13440000      -1.03890000      -1.46170000
C        2.19140000      -0.71160000       0.76600000
C        0.70600000      -0.63810000       1.14200000
O        0.39950000       0.04350000       2.34610000
H        1.23700000       1.91470000       0.00530000
H       -0.32260000       2.06710000      -0.82450000
H       -0.24950000       1.99810000       0.95310000
H       -1.77580000       0.07180000       0.66590000
H        0.29930000      -1.45850000      -1.53290000
H        0.76290000       0.12980000      -2.14770000
H        2.74040000      -1.55090000       1.20100000
H        2.70570000       0.20950000       1.06720000
H        0.28150000      -1.65340000       1.16140000
H        0.69730000      -0.49310000       3.08660000
