16
Properties=species:S:1:pos:R:3 gdb_30505=T pbc="F F F"
C        0.17440000       1.44200000      -0.29570000
N        0.05850000       0.02170000      -0.02580000
C        0.47860000      -0.52660000       1.04710000
N        0.30190000      -1.90760000       1.17620000
C        0.69190000      -2.65060000       2.25660000
C        1.29700000      -2.03560000       3.29610000
N        1.52310000      -0.67390000       3.27690000
C        1.15100000       0.01450000       2.25350000
O        1.37600000       1.34360000       2.24370000
H        1.21470000       1.78940000      -0.31600000
H       -0.26350000       1.63700000      -1.27910000
H       -0.35690000       2.06090000       0.43770000
H       -0.15270000      -2.33680000       0.38360000
H        0.48830000      -3.71220000       2.21460000
H        1.62450000      -2.57600000       4.17320000
H        1.81370000       1.53800000       3.08590000
