22
Properties=species:S:1:pos:R:3 gdb_118191=T pbc="F F F"
C       -0.31370000       1.40960000       0.14890000
C       -0.36100000      -0.09030000      -0.15280000
C        0.78630000      -0.55340000      -1.05720000
C        0.73540000      -2.04440000      -1.40460000
O       -0.50950000      -2.38290000      -2.04110000
C        1.94060000      -2.48210000      -2.25260000
C        2.12970000      -3.99190000      -2.44890000
N        0.98620000      -4.69280000      -2.68200000
O        3.23380000      -4.50270000      -2.42860000
H        0.61960000       1.68620000       0.65190000
H       -0.37960000       2.00220000      -0.77060000
H       -1.14240000       1.71050000       0.79720000
H       -0.32550000      -0.65660000       0.78710000
H       -1.31490000      -0.34890000      -0.62480000
H        0.78250000       0.02830000      -1.99250000
H        1.74920000      -0.34050000      -0.57570000
H        0.71990000      -2.62650000      -0.47500000
H       -0.58160000      -1.84550000      -2.83930000
H        1.86760000      -2.01250000      -3.24420000
H        2.86830000      -2.12140000      -1.80250000
H        0.08740000      -4.24330000      -2.58330000
H        1.05670000      -5.69410000      -2.75920000
