17
Properties=species:S:1:pos:R:3 gdb_31348=T pbc="F F F"
C       -0.20420000       1.55570000      -0.03110000
C        0.06250000       0.04110000       0.03630000
C        0.79150000      -0.48850000      -1.16720000
C        2.06820000      -0.92860000      -1.18410000
C        2.70730000      -1.40710000      -2.41590000
O        3.85500000      -1.80230000      -2.45530000
N        1.90320000      -1.38670000      -3.58880000
C        0.69750000      -0.95950000      -3.50330000
N        0.09470000      -0.50580000      -2.36170000
H        0.73500000       2.11130000      -0.10230000
H       -0.81630000       1.82470000      -0.89830000
H       -0.73470000       1.88960000       0.86480000
H        0.65820000      -0.19120000       0.92260000
H       -0.88910000      -0.49610000       0.14760000
H        2.65900000      -0.93790000      -0.27640000
H        0.06150000      -0.93710000      -4.38830000
H       -0.86500000      -0.20010000      -2.39220000
