15
Properties=species:S:1:pos:R:3 gdb_48934=T pbc="F F F"
O       -0.30290000       0.52040000      -0.71230000
C        0.18290000       1.11140000       0.22330000
C        1.39750000       1.93800000       0.12230000
O        1.83750000       2.55940000       1.29240000
C        2.97200000       3.23410000       0.83260000
C        3.67990000       2.47840000      -0.27780000
C        2.82080000       3.70110000      -0.60410000
C        1.71470000       2.77000000      -1.13010000
C        2.56170000       1.56480000      -0.80870000
H       -0.25660000       1.07450000       1.24260000
H        3.49570000       3.80360000       1.58790000
H        4.74640000       2.32040000      -0.34480000
H        3.08860000       4.67990000      -0.97450000
H        0.99180000       2.93760000      -1.91520000
H        2.63350000       0.60140000      -1.29210000
