12
Properties=species:S:1:pos:R:3 gdb_2122=T pbc="F F F"
O       -0.00980000       0.00100000       0.12040000
C       -0.02950000       1.19750000       0.05120000
C       -1.25270000       2.10630000       0.01000000
C       -0.69670000       3.54620000       0.05630000
N        0.74760000       3.37450000      -0.03730000
C        1.22610000       2.09710000      -0.01620000
O        2.37890000       1.73660000      -0.04500000
H       -1.80570000       1.90960000      -0.91350000
H       -1.92370000       1.87840000       0.84120000
H       -1.06980000       4.15780000      -0.77180000
H       -0.97040000       4.05320000       0.98920000
H        1.38400000       4.15630000      -0.05500000
