15
Properties=species:S:1:pos:R:3 gdb_34362=T pbc="F F F"
N       -0.08510000      -1.08810000      -0.10160000
C       -0.04360000       0.06580000      -0.05270000
C        0.02520000       1.51060000       0.03240000
O       -0.45470000       2.19550000      -1.14570000
C        0.80070000       2.92900000      -1.27990000
C        1.32140000       2.34340000       0.03900000
N        0.96490000       2.99530000       1.35980000
C       -0.36770000       3.62880000       1.26190000
C       -0.31740000       2.16670000       1.38960000
H        1.35680000       2.59160000      -2.16140000
H        0.64900000       4.01130000      -1.33180000
H        2.31890000       1.91310000       0.07750000
H       -0.60730000       4.19170000       2.15820000
H       -0.71430000       4.07510000       0.33690000
H       -0.62340000       1.61150000       2.26940000
