8
Properties=species:S:1:pos:R:3 gdb_58=T pbc="F F F"
N       -0.05230000       1.34990000       0.15540000
C        0.08550000      -0.01480000       0.02670000
N        1.14560000      -0.71990000      -0.03970000
C       -1.19430000      -0.71150000       0.01800000
N       -2.22750000      -1.22790000       0.00130000
H        0.75470000       1.92000000      -0.04410000
H       -0.94460000       1.76600000      -0.05930000
H        1.98310000      -0.13420000      -0.02880000
