16
Properties=species:S:1:pos:R:3 gdb_97185=T pbc="F F F"
C        0.09160000       1.43520000       0.11930000
N       -0.02640000      -0.00190000       0.30150000
C       -1.06530000      -0.62190000      -0.02760000
C       -1.25250000      -2.09870000       0.14120000
C       -1.99970000      -2.62170000      -1.07360000
O       -3.24920000      -1.92510000      -1.21350000
C       -3.30120000      -0.59530000      -1.03770000
O       -4.28230000       0.03860000      -1.26520000
O       -2.16360000       0.03000000      -0.59400000
H        0.94730000       1.63340000      -0.53520000
H       -0.79730000       1.91710000      -0.29780000
H        0.32470000       1.88850000       1.08860000
H       -0.27660000      -2.57050000       0.25960000
H       -1.84520000      -2.29990000       1.04220000
H       -1.41330000      -2.49180000      -1.99090000
H       -2.26770000      -3.67450000      -0.97600000
