18
Properties=species:S:1:pos:R:3 gdb_98422=T pbc="F F F"
C        0.11900000       1.43900000       0.07080000
N        0.12030000      -0.00510000      -0.04500000
C        0.53470000      -0.65340000      -1.15600000
O        0.89130000      -0.08840000      -2.19280000
C        0.57040000      -2.14680000      -1.03780000
O        0.18200000      -2.68460000       0.20130000
C        0.32090000      -2.95650000      -2.30440000
C        1.72120000      -2.83360000      -1.77380000
O        2.70160000      -2.11820000      -2.42610000
H        0.85220000       1.78130000       0.80990000
H        0.38230000       1.84880000      -0.90490000
H       -0.86990000       1.80840000       0.36180000
H       -0.05580000      -0.58390000       0.76180000
H       -0.74790000      -2.93230000       0.13830000
H       -0.19630000      -3.90210000      -2.17570000
H        0.06660000      -2.38820000      -3.19240000
H        2.12530000      -3.69430000      -1.25040000
H        2.30300000      -1.26240000      -2.67040000
