20
Properties=species:S:1:pos:R:3 gdb_17851=T pbc="F F F"
C        0.05670000       1.51250000      -0.13210000
C        1.59110000       1.51380000       0.13770000
C        1.44820000       0.07990000       0.67820000
C        0.02090000      -0.02420000       0.11600000
C        2.41980000      -1.05300000       0.75920000
C        3.80850000      -0.54470000       1.16870000
C        3.18730000       0.06250000       2.47030000
C        1.80860000      -0.44780000       2.03570000
H       -0.49880000       2.06890000       0.62680000
H       -0.26700000       1.85550000      -1.11700000
H        2.18380000       1.56570000      -0.78150000
H        1.96410000       2.27260000       0.83100000
H       -0.75300000      -0.39730000       0.79290000
H       -0.02840000      -0.60120000      -0.81340000
H        2.21180000      -2.00600000       0.28450000
H        4.51490000      -1.34890000       1.38560000
H        4.28470000       0.15630000       0.47470000
H        3.55950000      -0.43080000       3.37100000
H        3.28120000       1.14530000       2.60680000
H        1.05240000      -0.85970000       2.69560000
