20
Properties=species:S:1:pos:R:3 gdb_18986=T pbc="F F F"
C       -0.16220000       1.30890000       0.48980000
C        1.19170000       1.67820000      -0.19560000
C        1.45210000       0.17200000      -0.50290000
C        0.03780000      -0.17120000       0.07690000
C       -0.41040000      -0.64320000      -1.34550000
C       -0.93970000       0.40150000      -2.37480000
C        0.49000000       0.52560000      -2.99080000
C        1.04040000      -0.41800000      -1.89180000
H       -0.13200000       1.44080000       1.57480000
H       -1.05900000       1.81340000       0.12030000
H        1.11100000       2.33100000      -1.06800000
H        1.92630000       2.12220000       0.48050000
H        2.37000000      -0.23880000      -0.07850000
H       -0.10370000      -0.92200000       0.85700000
H       -0.89910000      -1.61860000      -1.37750000
H       -1.68770000       0.00040000      -3.06300000
H       -1.34600000       1.32140000      -1.94760000
H        0.55700000       0.07990000      -3.98700000
H        0.91990000       1.52930000      -3.04820000
H        1.67050000      -1.24520000      -2.22530000
