20
Properties=species:S:1:pos:R:3 gdb_14147=T pbc="F F F"
C        0.00460000       1.52590000      -0.24330000
C        0.00650000       0.03550000       0.00960000
C        1.29510000      -0.77370000      -0.05020000
C        0.57260000      -0.56290000       1.25820000
C        1.18820000       0.21350000       2.42960000
C        0.79360000      -0.63530000       3.66100000
C        0.45840000      -1.99090000       3.02730000
O       -0.14550000      -1.66170000       1.78470000
H        0.90890000       2.00260000       0.14930000
H       -0.03750000       1.73980000      -1.31700000
H       -0.85760000       2.01250000       0.22690000
H       -0.87030000      -0.49020000      -0.36000000
H        1.24990000      -1.76390000      -0.48990000
H        2.22560000      -0.23720000      -0.21670000
H        2.27490000       0.28010000       2.32490000
H        0.80350000       1.23430000       2.50100000
H        1.58540000      -0.69670000       4.41170000
H       -0.09820000      -0.22250000       4.14160000
H        1.37170000      -2.58880000       2.87290000
H       -0.25510000      -2.58900000       3.59980000
