15
Properties=species:S:1:pos:R:3 gdb_33760=T pbc="F F F"
N        0.07250000      -1.11330000      -0.01170000
C        0.03260000       0.04200000      -0.00120000
C       -0.03740000       1.47980000       0.00560000
C       -0.71190000       2.42480000       1.05240000
C        0.01460000       3.33490000       0.01670000
N        1.20140000       2.37220000      -0.01250000
C       -0.58080000       2.44200000      -1.08080000
C       -0.68550000       2.42540000      -2.52270000
O       -1.84860000       2.47150000      -1.63650000
H       -1.80380000       2.44360000       1.08480000
H       -0.26400000       2.39520000       2.04870000
H        0.15000000       4.41390000       0.02800000
H        1.61630000       2.34770000       0.92470000
H       -0.51280000       3.33440000      -3.09370000
H       -0.56600000       1.49090000      -3.06560000
