23
Properties=species:S:1:pos:R:3 gdb_106956=T pbc="F F F"
C       -0.10660000       1.56840000       0.08450000
C        0.03220000       0.04790000       0.03120000
C       -1.33190000      -0.60950000      -0.18820000
C        1.11370000      -0.53350000      -0.95450000
C        1.78440000      -1.25920000       0.22090000
C        2.31750000      -2.65430000       0.17670000
O        3.55160000      -2.64460000      -0.53530000
C        2.23920000      -0.24760000       1.23520000
C        0.78560000      -0.63110000       1.19700000
H        0.85480000       2.06170000       0.25380000
H       -0.51530000       1.95430000      -0.85670000
H       -0.78450000       1.87320000       0.89050000
H       -1.78150000      -0.27740000      -1.13090000
H       -1.24460000      -1.70070000      -0.22140000
H       -2.02570000      -0.35490000       0.62180000
H        0.68120000      -1.20980000      -1.69700000
H        1.74200000       0.19660000      -1.47450000
H        2.45330000      -3.02800000       1.20550000
H        1.58900000      -3.31760000      -0.31840000
H        3.83120000      -3.55700000      -0.65740000
H        2.79910000      -0.65280000       2.07270000
H        2.57280000       0.73780000       0.92020000
H        0.29840000      -1.08780000       2.05310000
