17
Properties=species:S:1:pos:R:3 gdb_31350=T pbc="F F F"
C        0.49350000       0.90030000       0.64630000
C       -0.23880000       0.33660000      -0.58360000
C       -1.58920000      -0.22070000      -0.24510000
N       -2.67950000       0.29510000      -0.65380000
C       -3.92110000      -0.27730000      -0.27980000
N       -5.04370000       0.19720000      -0.66280000
C       -3.84420000      -1.45450000       0.57990000
C       -2.64990000      -1.91600000       0.95250000
O       -1.48100000      -1.32620000       0.55820000
H        1.47290000       1.28930000       0.35590000
H       -0.07630000       1.71730000       1.09880000
H        0.64370000       0.12630000       1.40320000
H       -0.39040000       1.11190000      -1.33640000
H        0.36200000      -0.46320000      -1.03260000
H       -4.86920000       1.01470000      -1.25200000
H       -4.75660000      -1.93740000       0.90280000
H       -2.46420000      -2.77600000       1.58240000
