17
Properties=species:S:1:pos:R:3 gdb_51743=T pbc="F F F"
O       -0.17010000       0.13230000      -0.34140000
C       -0.08880000       1.31190000      -0.18890000
O        1.08750000       1.93920000       0.02760000
C        1.08520000       3.34790000       0.19680000
C        1.89320000       3.86440000       1.40230000
O        2.71210000       4.68580000       0.53930000
C        2.11570000       4.11060000      -0.62550000
C        2.91010000       3.62530000      -1.78960000
C        1.99760000       4.83820000      -1.91980000
H       -0.94870000       2.00980000      -0.20720000
H        0.06370000       3.73630000       0.12680000
H        1.35120000       4.45920000       2.14390000
H        2.46970000       3.07490000       1.89730000
H        3.97890000       3.80620000      -1.75860000
H        2.61430000       2.69180000      -2.25590000
H        1.07820000       4.74420000      -2.48950000
H        2.46830000       5.81380000      -1.97480000
