17
Properties=species:S:1:pos:R:3 gdb_70071=T pbc="F F F"
C       -0.02180000       1.41430000      -0.13610000
C       -0.08920000      -0.07030000       0.11130000
C       -0.78650000      -0.61940000       1.31320000
C        0.74110000      -0.72180000       1.19960000
C        1.33320000      -2.02400000       0.86290000
C        1.04880000      -2.63880000      -0.29050000
C        0.21790000      -2.02040000      -1.33870000
O       -0.04480000      -2.55350000      -2.38570000
O       -0.23000000      -0.74600000      -1.12350000
H        0.84550000       1.66270000      -0.75500000
H       -0.92250000       1.75150000      -0.65780000
H        0.05570000       1.95870000       0.80870000
H       -1.19020000       0.08290000       2.03400000
H       -1.34040000      -1.54500000       1.20390000
H        1.32290000      -0.07540000       1.84860000
H        2.01120000      -2.48110000       1.57890000
H        1.45100000      -3.60930000      -0.55240000
