19
Properties=species:S:1:pos:R:3 gdb_70380=T pbc="F F F"
C       -0.11400000       1.53790000       0.01660000
C        0.03910000       0.04370000       0.02630000
C       -0.81110000      -0.85950000       0.88550000
C        0.68030000      -0.90830000       1.04410000
C        1.26670000      -1.77510000      -0.06900000
C        0.63820000      -0.77800000      -1.14260000
N       -0.30980000      -1.20590000      -2.15750000
C        1.71880000      -0.04100000      -1.80930000
N        2.58680000       0.52660000      -2.31960000
H        0.81410000       2.03300000      -0.28580000
H       -0.90060000       1.84460000      -0.68180000
H       -0.38730000       1.90510000       1.01070000
H       -1.35770000      -0.33340000       1.66170000
H       -1.34750000      -1.71810000       0.48580000
H        1.17780000      -0.66220000       1.97350000
H        2.35660000      -1.79530000      -0.10430000
H        0.88540000      -2.80000000      -0.13070000
H        0.13320000      -1.81870000      -2.83540000
H       -1.06840000      -1.72220000      -1.72560000
