21
Properties=species:S:1:pos:R:3 gdb_26090=T pbc="F F F"
C       -0.24070000       1.54960000      -0.09430000
C        0.02240000       0.03080000      -0.00160000
C        0.88400000      -0.27100000       1.23690000
C       -1.32520000      -0.71520000       0.10840000
C        0.71580000      -0.41480000      -1.27110000
N        0.21990000      -0.28600000      -2.48530000
C        1.15980000      -0.81240000      -3.33890000
C        2.24300000      -1.26850000      -2.63880000
N        1.94690000      -1.00860000      -1.31720000
H        0.69870000       2.11020000      -0.14140000
H       -0.81550000       1.77920000      -0.99410000
H       -0.80140000       1.89550000       0.78100000
H        0.36590000       0.05810000       2.14260000
H        1.07760000      -1.34440000       1.34550000
H        1.84420000       0.25650000       1.20220000
H       -1.92700000      -0.54200000      -0.78640000
H       -1.17120000      -1.79470000       0.20810000
H       -1.88520000      -0.36780000       0.98350000
H        1.00240000      -0.83260000      -4.40670000
H        3.16630000      -1.73720000      -2.93540000
H        2.53450000      -1.21940000      -0.52930000
