20
Properties=species:S:1:pos:R:3 gdb_82603=T pbc="F F F"
C       -0.02000000       1.46860000      -0.20780000
N       -0.01410000       0.02020000      -0.04430000
C       -1.21470000      -0.52330000       0.68980000
C       -0.92060000      -2.03000000       0.54180000
C        0.36970000      -1.96230000       1.38600000
C       -0.21770000      -1.58140000       2.77330000
O        0.74450000      -1.34680000       3.78440000
C       -0.53840000      -0.24300000       2.09890000
C        0.70630000      -0.41690000       1.17570000
H        0.96630000       1.79350000      -0.55610000
H       -0.75090000       1.74090000      -0.97640000
H       -0.25820000       2.03820000       0.70750000
H       -2.19360000      -0.13530000       0.40790000
H       -1.67500000      -2.68820000       0.98350000
H       -0.76540000      -2.29290000      -0.50500000
H        1.11540000      -2.75010000       1.27880000
H       -1.04380000      -2.20470000       3.14590000
H        1.14780000      -2.19170000       4.00820000
H       -0.78940000       0.65090000       2.66480000
H        1.70950000      -0.04620000       1.37280000
