20
Properties=species:S:1:pos:R:3 gdb_93879=T pbc="F F F"
C        0.08640000       1.42320000      -0.09210000
N       -0.06810000       0.00840000       0.16300000
C       -1.42410000      -0.52990000       0.09140000
C       -1.27290000      -1.91320000       0.71780000
C       -0.35200000      -1.61850000       1.92100000
N        0.36960000      -2.70070000       2.56210000
C        0.59660000      -0.50400000       1.36140000
C        1.93650000      -1.01780000       1.01740000
N        2.98120000      -1.42200000       0.73220000
H        1.14860000       1.68120000      -0.14640000
H       -0.36560000       1.67190000      -1.05740000
H       -0.38480000       2.06110000       0.67990000
H       -2.15160000       0.07600000       0.66570000
H       -1.76670000      -0.55160000      -0.94860000
H       -2.22350000      -2.35940000       1.02070000
H       -0.77400000      -2.59480000       0.01990000
H       -0.96040000      -1.13780000       2.69630000
H       -0.28080000      -3.35910000       2.97780000
H        0.92920000      -3.21300000       1.88600000
H        0.73810000       0.26990000       2.13180000
