13
Properties=species:S:1:pos:R:3 gdb_8868=T pbc="F F F"
O        0.43440000       0.28880000       0.98090000
C       -0.12990000       0.27350000      -0.30910000
C       -1.50390000      -0.44720000      -0.37780000
O       -2.01020000      -0.35700000      -1.67670000
C       -1.37680000      -1.90630000       0.02900000
O       -1.53570000      -2.79820000      -0.77310000
C       -1.08330000      -2.20190000       1.43450000
N       -0.91670000      -2.45530000       2.55030000
H       -0.06480000       0.89620000       1.53640000
H       -0.27880000       1.27730000      -0.72770000
H        0.57410000      -0.25470000      -0.95950000
H       -2.18810000       0.04020000       0.33690000
H       -2.02910000      -1.25970000      -2.03050000
