15
Properties=species:S:1:pos:R:3 gdb_8134=T pbc="F F F"
O       -0.05410000       1.38930000      -0.00370000
C        0.00560000      -0.00290000       0.02630000
C       -0.41760000      -0.78220000      -1.20270000
C       -1.28830000      -0.76410000       0.04520000
N       -1.11530000      -1.83370000       0.98220000
C        0.15750000      -1.92360000       1.50390000
O        0.57840000      -2.82510000       2.19020000
C        0.92590000      -0.67380000       1.03350000
H        0.69820000       1.70920000      -0.51390000
H       -0.75960000      -0.18200000      -2.03890000
H        0.09250000      -1.70490000      -1.46140000
H       -2.24120000      -0.24880000       0.04240000
H       -1.71280000      -2.64610000       1.00430000
H        1.90220000      -0.97270000       0.64240000
H        1.09320000      -0.00850000       1.88680000
