19
Properties=species:S:1:pos:R:3 gdb_33249=T pbc="F F F"
O       -0.05400000       1.48130000      -0.06020000
C        0.00820000       0.07570000       0.13430000
C       -1.39270000      -0.48960000      -0.05120000
C       -1.44070000      -2.01830000       0.10810000
C       -2.83040000      -2.56670000       0.01280000
C       -3.37370000      -3.37270000      -0.95490000
N       -4.68600000      -3.57240000      -0.57950000
C       -4.87720000      -2.88880000       0.58270000
N       -3.78470000      -2.27330000       0.96790000
H        0.82580000       1.84260000       0.08080000
H        0.70020000      -0.39400000      -0.58550000
H        0.37660000      -0.17110000       1.14390000
H       -2.06580000      -0.02840000       0.67850000
H       -1.75970000      -0.20610000      -1.04460000
H       -0.81050000      -2.49460000      -0.65280000
H       -1.01670000      -2.29030000       1.08360000
H       -2.96390000      -3.81200000      -1.84930000
H       -5.36870000      -4.12420000      -1.07040000
H       -5.82670000      -2.88070000       1.09720000
