15
Properties=species:S:1:pos:R:3 gdb_6430=T pbc="F F F"
C       -0.25200000       1.79070000       0.00080000
C        0.02010000       0.30400000       0.00850000
C        0.78040000      -0.30370000      -1.20820000
C        1.86620000      -0.58600000      -0.19470000
N        3.00240000      -1.10720000      -0.24240000
O        1.15980000      -0.05800000       0.87130000
C       -1.18220000      -0.53200000       0.41890000
O       -2.32010000      -0.14770000       0.37470000
H        0.62370000       2.34180000      -0.35060000
H       -1.10170000       2.00460000      -0.65250000
H       -0.50620000       2.13640000       1.00630000
H        0.33930000      -1.19440000      -1.66100000
H        1.03870000       0.41180000      -1.98990000
H        3.44690000      -1.12850000       0.67680000
H       -0.91290000      -1.55770000       0.75620000
