15
Properties=species:S:1:pos:R:3 gdb_10260=T pbc="F F F"
C        0.06750000       1.49150000      -0.03570000
N       -0.00710000       0.03330000       0.03670000
C        0.70890000      -0.51460000       1.18510000
C       -1.35730000      -0.49270000      -0.06850000
C       -2.27520000      -0.03390000       1.01480000
N       -2.90470000       0.33970000       1.90850000
C       -1.94690000      -0.18930000      -1.38640000
N       -2.40150000       0.03230000      -2.42360000
H        1.11970000       1.78220000      -0.08350000
H       -0.42420000       1.84280000      -0.94650000
H       -0.39450000       1.99110000       0.83140000
H        0.28940000      -0.19750000       2.15450000
H        0.69840000      -1.60820000       1.14210000
H        1.74910000      -0.18340000       1.13720000
H       -1.29790000      -1.58610000       0.01110000
