22
Properties=species:S:1:pos:R:3 gdb_121625=T pbc="F F F"
C        0.26130000       1.43340000      -0.04420000
C        0.51520000      -0.07180000       0.06870000
C        0.15520000      -0.61600000       1.45610000
N        0.37610000      -2.04930000       1.58580000
C        1.41650000      -2.58300000       2.26840000
O        2.24350000      -1.91710000       2.87830000
C        1.53480000      -4.11860000       2.26090000
C        1.87940000      -4.65220000       0.86240000
O        2.52270000      -4.48760000       3.18540000
H        0.85570000       1.99020000       0.68810000
H        0.52460000       1.80470000      -1.03860000
H       -0.79290000       1.67430000       0.13270000
H       -0.06690000      -0.60600000      -0.69380000
H        1.56950000      -0.29470000      -0.13110000
H        0.77100000      -0.13980000       2.22260000
H       -0.89480000      -0.39610000       1.68650000
H       -0.24850000      -2.67620000       1.10420000
H        0.56500000      -4.53860000       2.57440000
H        2.80570000      -4.19530000       0.50160000
H        2.02940000      -5.73330000       0.91900000
H        1.08430000      -4.45280000       0.13580000
H        2.91310000      -3.64320000       3.47170000
