23
Properties=species:S:1:pos:R:3 gdb_63574=T pbc="F F F"
C        0.01860000       1.51400000      -0.18740000
C       -0.00560000       0.00080000      -0.06450000
C       -1.17590000      -0.63830000      -0.79090000
C        1.31470000      -0.73020000      -0.05550000
C        0.50370000      -0.62280000       1.23000000
C        0.97890000       0.23050000       2.42280000
C        0.93590000      -0.71610000       3.65390000
C        0.11990000      -1.88880000       3.16590000
C       -0.09820000      -1.83500000       1.85190000
H        0.89020000       1.95460000       0.30330000
H        0.04640000       1.81160000      -1.24240000
H       -0.87760000       1.96430000       0.25670000
H       -1.17880000      -0.34000000      -1.84620000
H       -1.13690000      -1.73000000      -0.76160000
H       -2.13320000      -0.32580000      -0.35690000
H        1.37100000      -1.69880000      -0.54370000
H        2.22880000      -0.14680000      -0.12020000
H        1.97240000       0.65810000       2.26490000
H        0.29080000       1.06820000       2.57920000
H        1.94130000      -1.04280000       3.95430000
H        0.49950000      -0.23050000       4.53440000
H       -0.20380000      -2.69100000       3.81970000
H       -0.62570000      -2.58890000       1.27960000
