16
Properties=species:S:1:pos:R:3 gdb_45051=T pbc="F F F"
O        0.03510000       0.06680000      -0.39770000
C       -0.02060000       1.20960000      -0.03120000
C       -1.28890000       1.99360000       0.34130000
C       -0.78630000       3.30510000       0.90970000
N        0.09350000       3.10950000       2.07590000
C        0.69590000       3.39660000       0.75460000
C        1.18360000       2.14390000       0.10130000
C        2.55050000       1.61630000       0.12410000
O        2.02920000       2.24040000      -1.05000000
H       -1.87570000       2.14880000      -0.57240000
H       -1.90280000       1.41820000       1.03900000
H       -1.40740000       4.19250000       0.85790000
H        0.11050000       3.95180000       2.64530000
H        1.21190000       4.33240000       0.57290000
H        3.32320000       2.17430000       0.65040000
H        2.68980000       0.53970000       0.05060000
