25
Properties=species:S:1:pos:R:3 gdb_112710=T pbc="F F F"
C       -0.18520000       1.49090000       0.09980000
C       -0.17330000      -0.02080000      -0.14440000
C        0.76530000      -0.47020000      -1.27430000
C        0.90680000      -2.01720000      -1.34100000
C        0.85800000      -2.38720000      -2.83640000
C        0.51810000      -3.84600000      -3.13300000
C       -0.13420000      -1.35690000      -3.39750000
O       -1.44400000      -1.76960000      -3.00350000
C        0.28330000      -0.05340000      -2.69910000
H        0.81310000       1.85350000       0.37090000
H       -0.50410000       2.04540000      -0.78960000
H       -0.86710000       1.75610000       0.91410000
H        0.12370000      -0.52900000       0.78230000
H       -1.18620000      -0.37510000      -0.37560000
H        1.74940000      -0.02240000      -1.09010000
H        1.81890000      -2.37400000      -0.85320000
H        0.06090000      -2.48860000      -0.82840000
H        1.83250000      -2.14960000      -3.28580000
H       -0.47170000      -4.09700000      -2.74360000
H        0.51530000      -4.04350000      -4.21050000
H        1.25000000      -4.51880000      -2.67360000
H       -0.07720000      -1.28130000      -4.49380000
H       -2.06020000      -1.07680000      -3.25920000
H       -0.54110000       0.66860000      -2.67520000
H        1.09450000       0.41810000      -3.26490000
