16
Properties=species:S:1:pos:R:3 gdb_47759=T pbc="F F F"
N       -0.07640000       1.27900000       0.16790000
C       -0.00230000       0.03110000      -0.00210000
O        1.18350000      -0.63980000      -0.11040000
C        1.21420000      -1.76970000      -0.99230000
O        0.14880000      -2.63820000      -0.81840000
C       -1.08310000      -1.97310000      -1.04410000
C       -1.25460000      -0.84420000      -0.00510000
C       -1.49080000      -1.38850000       1.33040000
C       -1.69880000      -1.84700000       2.42080000
H        0.86000000       1.69000000       0.16300000
H        1.24380000      -1.38780000      -2.02700000
H        2.13150000      -2.30920000      -0.75510000
H       -1.10700000      -1.54830000      -2.06030000
H       -1.87410000      -2.71780000      -0.94850000
H       -2.09070000      -0.19920000      -0.29130000
H       -1.87790000      -2.24360000       3.38950000
