17
Properties=species:S:1:pos:R:3 gdb_65760=T pbc="F F F"
O       -0.11290000       1.38710000       0.10860000
C       -0.03300000      -0.02420000       0.06980000
C        0.88120000      -0.58900000       1.15420000
C        2.28490000      -0.01990000       1.11780000
O        2.58130000       1.04560000       0.62900000
C       -1.47370000      -0.59010000      -0.09130000
C       -1.27410000      -0.71550000      -1.63440000
C        0.22870000      -0.52440000      -1.38660000
O        1.22520000      -0.78260000      -1.99670000
H        0.80490000       1.70360000       0.08280000
H        0.47110000      -0.35170000       2.14780000
H        0.94270000      -1.68210000       1.09810000
H        3.06160000      -0.64250000       1.60980000
H       -1.60270000      -1.55920000       0.39630000
H       -2.24710000       0.10010000       0.24510000
H       -1.56250000      -1.64620000      -2.12730000
H       -1.70240000       0.12700000      -2.18480000
