20
Properties=species:S:1:pos:R:3 gdb_8676=T pbc="F F F"
C        0.14310000       1.52990000       0.06240000
C       -0.04260000       0.01340000      -0.01550000
C       -1.50970000      -0.49470000      -0.02510000
C       -2.28990000       0.05690000      -1.24270000
N       -1.44410000      -1.96270000       0.03840000
C       -2.71020000      -2.68930000       0.05130000
C       -2.17880000      -0.02700000       1.20990000
N       -2.70760000       0.36200000       2.16110000
H        1.20760000       1.77170000       0.13130000
H       -0.25180000       2.04120000      -0.82030000
H       -0.35120000       1.94530000       0.94570000
H        0.42970000      -0.37180000      -0.92890000
H        0.45720000      -0.47320000       0.82710000
H       -1.78670000      -0.25560000      -2.16380000
H       -3.31410000      -0.32120000      -1.25990000
H       -2.33940000       1.14800000      -1.22750000
H       -0.86190000      -2.28400000      -0.72780000
H       -2.49500000      -3.75650000       0.15440000
H       -3.29490000      -2.38380000       0.92420000
H       -3.33820000      -2.55490000      -0.84360000
