17
Properties=species:S:1:pos:R:3 gdb_86471=T pbc="F F F"
C        0.83500000       1.52730000      -0.11100000
C       -0.04510000       0.28400000      -0.06710000
C        0.18910000      -0.74610000      -1.20320000
C        0.92200000      -1.63810000      -0.13320000
N        0.34500000      -0.76070000       0.92140000
C        0.52980000      -3.04130000      -0.05390000
C        0.18900000      -4.19170000      -0.00920000
C        2.39010000      -1.53810000      -0.24480000
N        3.53860000      -1.41740000      -0.30580000
H        1.88660000       1.27200000      -0.27580000
H        0.51390000       2.19540000      -0.91750000
H        0.76070000       2.08440000       0.82950000
H       -1.09200000       0.57850000       0.06250000
H       -0.71770000      -1.23120000      -1.56200000
H        0.80270000      -0.42600000      -2.04460000
H        0.99720000      -0.47770000       1.64610000
H       -0.10910000      -5.21030000       0.04020000
