17
Properties=species:S:1:pos:R:3 gdb_73120=T pbc="F F F"
O       -0.00890000       1.40910000      -0.25520000
C        0.04280000       0.02940000       0.00170000
C        0.28410000      -0.91410000      -1.20020000
O       -0.92590000      -1.64560000      -0.90730000
C       -1.35210000      -0.66200000       0.06580000
C       -1.54070000      -1.28000000       1.43740000
C       -0.11360000      -1.42290000       1.98200000
O        0.26010000      -2.21040000       2.80740000
C        0.76790000      -0.36240000       1.29560000
H        0.88910000       1.75760000      -0.25130000
H        0.22760000      -0.38880000      -2.16200000
H        1.16940000      -1.56010000      -1.17740000
H       -2.18840000      -0.05700000      -0.29750000
H       -2.09860000      -0.60520000       2.10060000
H       -2.05880000      -2.24080000       1.41460000
H        1.78860000      -0.73050000       1.16620000
H        0.80210000       0.50840000       1.96290000
