17
Properties=species:S:1:pos:R:3 gdb_123424=T pbc="F F F"
C       -0.06240000       1.54400000      -0.26490000
C       -0.12420000       0.03520000      -0.22920000
C       -0.14090000      -0.68600000       1.09350000
C       -1.38840000      -0.63400000       0.25050000
N        1.29180000       2.05470000      -0.06390000
N        1.85500000       2.18350000       1.13170000
C        3.06720000       2.61250000       0.80080000
N        3.23330000       2.73610000      -0.53410000
N        2.09280000       2.37490000      -1.07170000
H       -0.38880000       1.93570000      -1.23080000
H       -0.68370000       1.97900000       0.52160000
H        0.40690000      -0.44570000      -1.04500000
H        0.39560000      -1.62490000       1.16510000
H       -0.10490000      -0.08390000       1.99450000
H       -2.20320000      -0.00050000       0.58600000
H       -1.71130000      -1.53370000      -0.26040000
H        3.83110000       2.84310000       1.52540000
