16
Properties=species:S:1:pos:R:3 gdb_133820=T pbc="F F F"
N       -1.26660000      -0.91020000       1.07120000
C       -0.58870000      -1.07520000      -0.25060000
C        0.65390000      -0.63230000       0.59740000
O        1.61130000       0.30800000       0.20330000
C        1.30150000       1.49850000      -0.34340000
C        0.27400000       1.83980000      -1.14090000
C       -0.80980000       1.02880000      -1.65030000
C       -1.16880000      -0.22400000      -1.32430000
C       -0.32220000      -0.34640000       1.80360000
H       -2.22590000      -1.11690000       1.32550000
H       -0.54980000      -2.12310000      -0.57540000
H        1.23800000      -1.51940000       0.86180000
H        2.07920000       2.22190000      -0.11740000
H        0.29540000       2.87100000      -1.47840000
H       -1.40980000       1.51890000      -2.41410000
H       -2.03360000      -0.65390000      -1.82470000
