18
Properties=species:S:1:pos:R:3 gdb_65154=T pbc="F F F"
O        0.28140000       1.39050000       0.04460000
C        0.05940000       0.01060000      -0.08920000
C        0.88240000      -0.67240000      -1.13540000
C        1.14150000      -0.94450000       0.33580000
C       -1.39500000      -0.33980000       0.10930000
C       -2.38440000       0.02960000      -1.01730000
C       -2.58530000      -1.46680000      -1.11480000
N       -3.29560000      -2.22860000      -1.81020000
O       -1.67840000      -1.76110000      -0.10740000
H        0.26780000       1.60660000       0.98410000
H        0.42570000      -1.46110000      -1.72140000
H        1.59370000      -0.04900000      -1.66380000
H        2.03210000      -0.51030000       0.77640000
H        0.84680000      -1.91060000       0.72930000
H       -1.72400000      -0.04940000       1.11430000
H       -3.27070000       0.59240000      -0.72240000
H       -1.93020000       0.49000000      -1.89570000
H       -3.14640000      -3.20770000      -1.56010000
