18
Properties=species:S:1:pos:R:3 gdb_33664=T pbc="F F F"
C       -0.04150000      -1.17430000      -0.17890000
C       -0.03290000       0.02250000      -0.04960000
C        0.01920000       1.43030000       0.11680000
C       -0.95490000       2.31870000       0.80430000
C       -0.25110000       3.30200000       1.73300000
C        1.25940000       3.06010000       1.46160000
C        1.26230000       2.37140000       0.09300000
C        0.46440000       3.21030000      -0.93040000
N       -0.80500000       2.44640000      -0.67140000
H       -0.05950000      -2.22910000      -0.29780000
H       -1.93100000       1.92820000       1.07050000
H       -0.55120000       4.33310000       1.51760000
H       -0.52170000       3.10450000       2.77380000
H        1.84300000       3.98630000       1.45930000
H        1.68650000       2.39670000       2.22150000
H        2.21690000       1.95700000      -0.22750000
H        0.39450000       4.29030000      -0.75690000
H        0.75870000       3.03270000      -1.96680000
