17
Properties=species:S:1:pos:R:3 gdb_34230=T pbc="F F F"
C       -0.04460000      -1.18680000       0.07030000
C       -0.04240000       0.01490000       0.02290000
C       -0.06920000       1.44460000      -0.02050000
N       -1.02850000       2.22010000       0.82200000
C       -0.67120000       3.35820000      -0.09730000
C        0.74740000       3.64730000       0.42090000
C        1.29870000       2.28750000      -0.06200000
N        1.14680000       2.33530000      -1.54460000
C       -0.29180000       2.33190000      -1.27800000
H       -0.03840000      -2.24800000       0.10960000
H       -1.96000000       1.88010000       0.57860000
H       -1.38980000       4.16830000      -0.20310000
H        1.26030000       4.48130000      -0.06770000
H        0.74660000       3.78740000       1.50280000
H        2.23130000       1.89610000       0.33980000
H        1.51020000       3.19080000      -1.96540000
H       -1.00200000       2.12580000      -2.07900000
