12
Properties=species:S:1:pos:R:3 gdb_20756=T pbc="F F F"
C       -0.02440000       1.53850000       0.01940000
C       -0.00290000       0.03950000      -0.01610000
N       -0.06500000      -0.53890000      -1.16820000
O       -0.04370000      -1.91650000      -1.17450000
C        0.04030000      -2.69590000      -0.01230000
O        0.05050000      -3.88050000      -0.14670000
N        0.10610000      -2.03220000       1.21780000
C        0.08480000      -0.74840000       1.19900000
H        0.88300000       1.92820000       0.49350000
H       -0.09240000       1.93390000      -0.99480000
H       -0.87940000       1.90040000       0.60070000
H        0.13580000      -0.22670000       2.15660000
