18
Properties=species:S:1:pos:R:3 gdb_126722=T pbc="F F F"
C       -0.09290000       1.51360000      -0.22320000
C       -0.06920000       0.03550000       0.17340000
N       -1.37070000      -0.59530000       0.09440000
C       -1.86010000      -1.39100000      -0.89610000
C       -3.18890000      -1.64260000      -0.60780000
N       -4.11260000      -2.46960000      -1.28130000
C       -3.39710000      -0.93820000       0.59850000
O       -4.57180000      -0.91740000       1.27490000
N       -2.31300000      -0.30850000       1.02510000
H        0.90550000       1.95040000      -0.11960000
H       -0.41750000       1.63510000      -1.26100000
H       -0.78290000       2.06440000       0.42060000
H        0.60430000      -0.53150000      -0.47640000
H        0.29170000      -0.07450000       1.20080000
H       -1.23950000      -1.71970000      -1.71490000
H       -4.21440000      -2.22020000      -2.25840000
H       -5.02410000      -2.40280000      -0.84420000
H       -4.43370000      -0.38750000       2.06900000
