21
Properties=species:S:1:pos:R:3 gdb_100556=T pbc="F F F"
C       -0.04120000       1.63300000      -0.04720000
C       -0.00640000       0.10240000      -0.05710000
N        0.75140000      -0.44860000      -1.18070000
C        2.20210000      -0.34000000      -1.13590000
C        0.07020000      -0.99910000      -2.22890000
O       -1.14990000      -1.12690000      -2.23310000
C        0.86550000      -1.46540000      -3.42230000
C        0.62130000      -2.87650000      -3.85740000
N        0.08220000      -1.76070000      -4.62690000
H        0.96400000       2.06270000       0.01560000
H       -0.52050000       2.01280000      -0.95420000
H       -0.61080000       1.99060000       0.81620000
H        0.43760000      -0.27240000       0.87370000
H       -1.01670000      -0.29900000      -0.13670000
H        2.67580000      -1.21640000      -1.58170000
H        2.58120000       0.55830000      -1.64060000
H        2.51690000      -0.29450000      -0.08970000
H        1.83160000      -1.01240000      -3.61210000
H        1.42470000      -3.43250000      -4.33260000
H       -0.06130000      -3.46260000      -3.24830000
H       -0.89560000      -1.63340000      -4.35890000
