19
Properties=species:S:1:pos:R:3 gdb_83155=T pbc="F F F"
C       -0.62860000       1.22080000       0.35570000
C       -0.07430000      -0.15140000       0.04740000
C        0.73200000      -0.46430000      -1.20570000
C        1.21440000       0.62450000      -2.15940000
C        2.72200000       0.80860000      -2.03420000
O        3.45850000       1.00740000      -2.96950000
C        3.26650000       0.71150000      -0.60540000
O        2.24380000       0.63840000       0.37440000
C        1.39410000      -0.45300000       0.15430000
H        0.12540000       1.99840000       0.22050000
H       -1.49110000       1.45360000      -0.27810000
H       -0.95840000       1.26960000       1.39850000
H       -0.71600000      -0.97060000       0.36140000
H        0.55790000      -1.43140000      -1.66570000
H        0.98280000       0.39360000      -3.20100000
H        0.74300000       1.58940000      -1.93490000
H        3.94650000      -0.15340000      -0.55010000
H        3.85620000       1.60770000      -0.39170000
H        1.73030000      -1.38190000       0.61470000
