21
Properties=species:S:1:pos:R:3 gdb_74710=T pbc="F F F"
C        0.30080000       1.48800000      -0.01090000
C       -0.01210000       0.01360000      -0.03110000
C        0.08060000      -0.69220000      -1.16440000
C       -0.23600000      -2.15650000      -1.29510000
C        0.29270000      -3.06410000      -0.15670000
C       -1.12990000      -2.88680000       0.41200000
C       -1.31510000      -1.77160000       1.44010000
C       -0.35120000      -0.56900000       1.33260000
O       -1.60700000      -2.45150000      -0.88590000
H        1.08370000       1.71580000       0.72450000
H        0.63540000       1.84730000      -0.98730000
H       -0.58010000       2.07220000       0.28550000
H        0.37780000      -0.17590000      -2.07430000
H       -0.05380000      -2.50480000      -2.31590000
H        0.48100000      -4.08420000      -0.49580000
H        1.13980000      -2.70740000       0.43080000
H       -1.64940000      -3.79520000       0.73750000
H       -2.34940000      -1.42520000       1.33240000
H       -1.22580000      -2.18750000       2.45190000
H        0.60340000      -0.83530000       1.81150000
H       -0.75420000       0.23540000       1.95960000
