17
Properties=species:S:1:pos:R:3 gdb_30188=T pbc="F F F"
O        0.06720000       1.38990000       0.06040000
C        0.01290000      -0.02520000      -0.02670000
C       -1.48030000      -0.51810000      -0.11170000
C       -1.61210000      -0.68320000      -1.58830000
C       -0.42310000      -0.70000000      -2.25700000
C        0.73570000      -0.54100000      -1.31720000
N       -0.60010000      -0.91650000      -3.60100000
C       -1.90520000      -1.02880000      -3.73790000
N       -2.57520000      -0.90280000      -2.54240000
H       -0.27910000       1.74020000      -0.76910000
H        0.49540000      -0.38290000       0.88580000
H       -1.62460000      -1.46240000       0.43100000
H       -2.13250000       0.23050000       0.34940000
H        1.49580000       0.18250000      -1.62680000
H        1.24980000      -1.49390000      -1.13560000
H       -2.43110000      -1.19160000      -4.66720000
H       -3.57220000      -0.94570000      -2.41480000
