19
Properties=species:S:1:pos:R:3 gdb_99824=T pbc="F F F"
C       -0.04630000       1.48150000       0.12290000
N        0.09490000       0.02470000       0.04460000
C        0.70590000      -0.50500000      -1.18000000
C       -0.11190000      -0.10500000      -2.42770000
C        2.09880000      -0.01990000      -1.34610000
N        3.15080000       0.45180000      -1.42570000
C        0.72320000      -2.06230000      -1.06300000
C       -0.61730000      -2.73510000      -0.85210000
O        1.75680000      -2.67430000      -1.14890000
H        0.88580000       2.03030000      -0.07880000
H       -0.81150000       1.82520000      -0.57800000
H       -0.38640000       1.73520000       1.12990000
H        0.64660000      -0.29040000       0.83710000
H       -0.02640000       0.96570000      -2.62190000
H        0.26120000      -0.63460000      -3.30780000
H       -1.16450000      -0.35180000      -2.27330000
H       -1.14190000      -2.80750000      -1.81200000
H       -0.45150000      -3.74510000      -0.47580000
H       -1.24550000      -2.15650000      -0.17290000
