22
Properties=species:S:1:pos:R:3 gdb_101107=T pbc="F F F"
C        0.03560000       1.34570000       0.10220000
O       -0.09910000      -0.04220000      -0.09390000
C        0.63510000      -0.56820000      -1.19350000
C        2.13630000      -0.66340000      -0.90430000
C        0.02250000      -1.92030000      -1.48400000
C       -0.06080000      -3.17620000      -0.58110000
N       -0.79300000      -3.64790000      -1.85180000
C       -1.44870000      -2.25450000      -1.81760000
C        0.34770000      -2.93700000      -2.60280000
H        1.05080000       1.63670000       0.40900000
H       -0.22430000       1.91160000      -0.80660000
H       -0.65770000       1.62570000       0.89950000
H        0.47870000       0.07960000      -2.07490000
H        2.57460000       0.32160000      -0.72270000
H        2.31420000      -1.28760000      -0.02330000
H        2.66150000      -1.10640000      -1.75640000
H        0.85810000      -3.73460000      -0.38030000
H       -0.70220000      -3.12870000       0.30200000
H       -2.19140000      -2.13860000      -1.02520000
H       -1.84300000      -1.93630000      -2.78750000
H        0.09150000      -2.67080000      -3.63270000
H        1.29930000      -3.47450000      -2.55600000
