20
Properties=species:S:1:pos:R:3 gdb_120104=T pbc="F F F"
O       -0.12460000       1.41970000       1.10940000
C       -0.22020000       0.00830000       1.02010000
C       -1.37420000      -0.32210000       0.07600000
C       -1.56000000      -1.83400000      -0.03950000
C       -2.75430000      -2.69190000       0.28450000
C       -4.05940000      -2.26680000      -0.41780000
C       -3.97820000      -1.12050000      -1.35220000
N       -3.45890000      -2.43050000      -1.78780000
C       -2.14330000      -2.74300000      -1.10360000
H        0.59620000       1.63730000       1.70730000
H        0.71280000      -0.43370000       0.63240000
H       -0.41120000      -0.44600000       2.00630000
H       -2.26990000       0.16600000       0.46910000
H       -1.15630000       0.13200000      -0.89760000
H       -0.66960000      -2.35480000       0.32140000
H       -2.75140000      -3.44610000       1.06120000
H       -5.00580000      -2.74290000      -0.18090000
H       -4.89970000      -0.86870000      -1.87160000
H       -3.31380000      -0.28370000      -1.20460000
H       -1.54340000      -3.51010000      -1.57820000
