16
Properties=species:S:1:pos:R:3 gdb_19341=T pbc="F F F"
O       -0.10720000       0.02010000      -0.03070000
C        0.01630000       1.22560000      -0.04130000
C        1.28770000       1.92950000       0.06040000
C        1.37420000       3.41200000       0.37020000
C        1.79860000       2.97750000      -0.98300000
C        3.14640000       2.22210000      -1.04650000
C        3.83910000       2.07590000       0.28180000
C        2.65280000       1.20810000      -0.02390000
H       -0.86720000       1.89750000      -0.15260000
H        0.40770000       3.90740000       0.40420000
H        2.07210000       3.77440000       1.11570000
H        1.25960000       3.27540000      -1.87310000
H        3.64690000       2.03050000      -1.98590000
H        4.78920000       1.55360000       0.22100000
H        3.82850000       2.85040000       1.04090000
H        2.69970000       0.12950000      -0.07030000
