15
Properties=species:S:1:pos:R:3 gdb_50189=T pbc="F F F"
O        0.04570000       0.11470000      -0.42130000
C        0.08420000       1.30120000      -0.19390000
N        1.21300000       1.96860000       0.18540000
C        2.62090000       1.54830000       0.04780000
C        3.00670000       3.03780000       0.01660000
C        2.27770000       3.77300000      -1.09860000
C        1.99420000       3.17370000      -2.37340000
N        1.76180000       2.68200000      -3.39410000
C        1.53680000       3.37670000       0.17350000
H       -0.80030000       1.96940000      -0.22090000
H        2.98610000       1.02640000       0.93590000
H        2.82820000       0.95670000      -0.84760000
H        3.86550000       3.47760000       0.50270000
H        2.52040000       4.83080000      -1.14540000
H        1.02550000       4.10040000       0.79630000
