21
Properties=species:S:1:pos:R:3 gdb_53416=T pbc="F F F"
C        0.06330000       1.52360000      -0.04210000
C        0.02380000       0.06770000      -0.02550000
C       -0.00130000      -1.13690000      -0.01400000
C       -0.03180000      -2.59650000       0.01410000
C        0.65790000      -3.21690000       1.26630000
C       -0.13530000      -4.51000000       1.56550000
C       -1.46330000      -4.24940000       0.89890000
C       -1.43430000      -3.21360000       0.05970000
C       -2.53750000      -2.70230000      -0.80870000
H        1.03940000       1.89870000       0.28550000
H       -0.11970000       1.91740000      -1.04830000
H       -0.69430000       1.95270000       0.62320000
H        0.46660000      -2.96070000      -0.89950000
H        1.72630000      -3.38400000       1.11060000
H        0.55020000      -2.51710000       2.09940000
H        0.35100000      -5.39660000       1.13260000
H       -0.22210000      -4.70440000       2.64060000
H       -2.33250000      -4.87930000       1.06000000
H       -3.46540000      -3.25690000      -0.64580000
H       -2.72530000      -1.63960000      -0.61780000
H       -2.27390000      -2.78340000      -1.87160000
