23
Properties=species:S:1:pos:R:3 gdb_121151=T pbc="F F F"
C        0.07490000       1.52480000       0.27820000
C       -0.00570000       0.00660000       0.10180000
C       -1.43810000      -0.49780000      -0.11120000
C       -1.50960000      -2.00930000      -0.24330000
O       -1.07510000      -2.69260000       0.96490000
C       -2.32390000      -3.40690000       1.08410000
C       -2.87290000      -2.70040000      -0.14900000
C       -4.23890000      -2.12550000      -0.36490000
C       -3.73200000      -3.24940000      -1.24290000
H        1.10730000       1.85380000       0.43260000
H       -0.31340000       2.04970000      -0.60220000
H       -0.51180000       1.85430000       1.14300000
H        0.61600000      -0.29900000      -0.75040000
H        0.41120000      -0.49560000       0.98180000
H       -2.07360000      -0.18480000       0.72680000
H       -1.86290000      -0.04570000      -1.01910000
H       -0.90630000      -2.34200000      -1.10250000
H       -2.18590000      -4.49260000       0.98860000
H       -2.83100000      -3.19340000       2.03450000
H       -5.00790000      -2.35330000       0.36680000
H       -4.31900000      -1.13390000      -0.79850000
H       -3.46440000      -3.01440000      -2.26870000
H       -4.15960000      -4.23850000      -1.11070000
