16
Properties=species:S:1:pos:R:3 gdb_94969=T pbc="F F F"
O       -0.29550000       1.37420000       0.55940000
C       -0.04100000       0.11730000      -0.04280000
C        0.68850000      -0.86730000       0.89370000
O       -0.30910000      -1.38540000       1.76920000
C       -1.48430000      -1.52970000       1.01600000
C       -1.41230000      -0.55030000      -0.20240000
N       -1.45800000      -1.72620000      -1.06890000
C       -1.49620000      -2.67230000      -0.06560000
O       -1.51740000      -3.87110000      -0.07550000
H        0.53600000       1.73550000       0.88120000
H        0.48630000       0.22440000      -1.00190000
H        1.15690000      -1.67140000       0.30720000
H        1.45990000      -0.39090000       1.50590000
H       -2.35010000      -1.50050000       1.67740000
H       -2.21220000       0.17730000      -0.34640000
H       -1.44390000      -1.81950000      -2.07420000
