23
Properties=species:S:1:pos:R:3 gdb_122196=T pbc="F F F"
C       -0.05100000       1.44190000      -0.23530000
C       -0.03960000      -0.06360000      -0.03250000
O       -1.37540000      -0.52580000      -0.00570000
C       -1.48750000      -1.92160000       0.16400000
C       -2.96460000      -2.29830000       0.15090000
C       -3.73010000      -1.64940000       1.29650000
C       -3.57730000      -2.18750000      -1.26800000
O       -3.51750000      -3.61880000      -1.45160000
C       -3.16300000      -3.81830000      -0.06980000
H        0.97120000       1.83090000      -0.26080000
H       -0.54400000       1.69820000      -1.17730000
H       -0.59010000       1.93490000       0.57870000
H        0.51650000      -0.56020000      -0.84560000
H        0.47070000      -0.32420000       0.91030000
H       -0.95940000      -2.45120000      -0.64720000
H       -1.02400000      -2.23560000       1.11660000
H       -3.62810000      -0.56170000       1.25740000
H       -4.79420000      -1.90160000       1.25460000
H       -3.34250000      -1.98640000       2.26520000
H       -4.61100000      -1.81660000      -1.28750000
H       -2.98590000      -1.64490000      -2.01310000
H       -2.27730000      -4.45720000       0.04310000
H       -3.98980000      -4.25200000       0.50970000
