16
Properties=species:S:1:pos:R:3 gdb_58157=T pbc="F F F"
C       -0.03810000       1.55630000       0.08230000
C       -0.00390000       0.03230000       0.06450000
O       -1.28950000      -0.54670000       0.18730000
C        0.70460000      -0.49780000      -1.21550000
O        2.02000000       0.01840000      -1.35620000
C        0.69510000      -1.96120000      -1.25480000
C        0.75220000      -3.16820000      -1.25900000
C        0.80970000      -4.53220000      -1.26860000
N        0.86230000      -5.69270000      -1.27680000
H        0.96860000       1.97000000      -0.00550000
H       -0.63040000       1.93830000      -0.75950000
H       -0.49350000       1.90920000       1.01080000
H        0.56120000      -0.33740000       0.92950000
H       -1.88270000      -0.09970000      -0.42700000
H        0.15180000      -0.12000000      -2.08660000
H        2.58530000      -0.42240000      -0.71100000
