18
Properties=species:S:1:pos:R:3 gdb_23314=T pbc="F F F"
O       -0.06030000       1.41090000      -0.36190000
N        0.07890000       0.02030000      -0.22250000
C       -1.03480000      -0.55230000       0.06820000
C       -0.99200000      -2.06170000       0.19610000
C       -1.95310000      -2.60450000       1.23850000
C       -2.10970000      -1.97040000       2.58600000
C       -3.20620000      -1.79930000       1.53360000
C       -3.33900000      -0.48860000       0.86690000
C       -2.32530000       0.11120000       0.22150000
H        0.83310000       1.67650000      -0.60240000
H       -1.27010000      -2.49030000      -0.77700000
H        0.03640000      -2.37580000       0.39540000
H       -2.08290000      -3.68190000       1.20110000
H       -2.32160000      -2.61210000       3.43420000
H       -1.52130000      -1.08860000       2.81630000
H       -4.12960000      -2.34010000       1.71150000
H       -4.29820000       0.01620000       0.94770000
H       -2.42980000       1.10690000      -0.19010000
