19
Properties=species:S:1:pos:R:3 gdb_98337=T pbc="F F F"
C       -0.17810000       1.34710000       0.02040000
O       -0.08740000      -0.08090000       0.10710000
C        0.71080000      -0.55120000       1.08650000
O        1.30580000       0.15910000       1.85910000
C        0.76140000      -2.07060000       1.06090000
C        1.54960000      -2.55200000      -0.17120000
C        1.36130000      -2.59010000       2.38580000
C        1.31660000      -4.04290000       2.49230000
C        1.26470000      -5.24190000       2.56450000
H        0.80460000       1.78580000      -0.17040000
H       -0.85520000       1.55160000      -0.80890000
H       -0.57340000       1.76490000       0.94970000
H       -0.26930000      -2.43020000       0.96820000
H        1.08050000      -2.20150000      -1.09310000
H        2.57900000      -2.17850000      -0.14320000
H        1.58400000      -3.64390000      -0.18530000
H        2.39440000      -2.23460000       2.47290000
H        0.82300000      -2.14070000       3.22770000
H        1.22750000      -6.29990000       2.64440000
