12
Properties=species:S:1:pos:R:3 gdb_3960=T pbc="F F F"
O        0.03470000       1.36260000       0.44090000
C        0.00030000       0.03570000      -0.06210000
C       -1.40750000      -0.46160000       0.05060000
N       -1.64810000      -1.70940000       0.37470000
O       -3.03250000      -1.84450000       0.34960000
C       -3.57570000      -0.66290000       0.02100000
C       -2.61010000       0.26530000      -0.18590000
H        0.91890000       1.71170000       0.29530000
H        0.30690000       0.00630000      -1.12010000
H        0.66230000      -0.64280000       0.49280000
H       -4.65370000      -0.63880000      -0.02130000
H       -2.71450000       1.30360000      -0.44810000
