20
Properties=species:S:1:pos:R:3 gdb_106172=T pbc="F F F"
C        0.37170000       1.46780000       0.28410000
C       -0.14620000       0.08000000      -0.11570000
C        0.48180000      -0.44960000      -1.36870000
C        0.74960000      -1.84350000      -1.75900000
C        0.30500000      -2.05850000      -3.19750000
O       -0.05420000      -0.75710000      -3.67930000
C        0.56390000       0.16470000      -2.79540000
C        2.08730000      -0.07860000      -2.69810000
N        1.91310000      -0.93950000      -1.47670000
H        1.45470000       1.44450000       0.43940000
H        0.15660000       2.21270000      -0.48940000
H       -0.09720000       1.80850000       1.21180000
H        0.04680000      -0.63200000       0.69540000
H       -1.23560000       0.11010000      -0.25140000
H        0.66280000      -2.65420000      -1.04420000
H        1.09540000      -2.49700000      -3.82220000
H       -0.57250000      -2.71280000      -3.25160000
H        0.18510000       1.16400000      -3.00710000
H        2.56740000      -0.55850000      -3.55750000
H        2.65510000       0.81070000      -2.41350000
