15
Properties=species:S:1:pos:R:3 gdb_53769=T pbc="F F F"
O       -0.12840000       0.59090000      -0.90880000
C       -0.30580000       1.64810000      -0.37180000
O        0.73490000       2.47050000      -0.08360000
C       -1.60030000       2.16720000       0.02290000
C       -2.69400000       2.56020000       0.35070000
C       -4.01940000       3.04850000       0.74430000
N       -4.32110000       4.45490000       0.53190000
C       -3.50820000       5.19100000      -0.11140000
N       -3.79590000       6.49360000      -0.41820000
H       -3.02890000       7.11450000      -0.61430000
H       -4.58220000       6.90280000       0.06410000
H       -4.77870000       2.44540000       0.22650000
H       -4.15580000       2.82540000       1.81190000
H        0.40260000       3.25580000       0.36960000
H       -2.54500000       4.84960000      -0.50870000
