21
Properties=species:S:1:pos:R:3 gdb_114320=T pbc="F F F"
C       -0.19850000       1.51830000       0.09330000
C        0.20750000       0.05820000      -0.13450000
C        0.73380000      -0.59840000       1.12990000
O       -0.22940000      -0.66590000       2.23830000
C        0.12400000      -2.03760000       2.47550000
C       -0.34630000      -2.84170000       1.31660000
O       -1.51500000      -2.51680000       0.62950000
C        0.98690000      -2.10560000       1.21130000
C        2.29620000      -2.77460000       0.91240000
H        0.65190000       2.11870000       0.43530000
H       -0.57840000       1.97010000      -0.82760000
H       -0.98140000       1.58840000       0.85430000
H       -0.63060000      -0.52360000      -0.52670000
H        1.00580000       0.00320000      -0.88700000
H        1.61380000      -0.04870000       1.49660000
H        0.26380000      -2.35030000       3.50510000
H       -0.22150000      -3.91790000       1.41120000
H       -1.82150000      -1.68540000       1.01720000
H        2.48930000      -2.80290000      -0.16670000
H        3.13350000      -2.25110000       1.38870000
H        2.30410000      -3.80850000       1.27180000
