15
Properties=species:S:1:pos:R:3 gdb_13472=T pbc="F F F"
N       -0.07770000       1.33180000       0.15120000
C        0.07180000      -0.03040000       0.02200000
N        1.13240000      -0.73400000      -0.08400000
N       -1.15220000      -0.70470000       0.06280000
C       -1.45430000      -2.14020000       0.04890000
C       -2.96380000      -1.74950000       0.03620000
C       -2.47050000      -0.29220000       0.03070000
O       -2.95840000       0.81150000      -0.00050000
H        0.69100000       1.90120000      -0.16090000
H       -1.00810000       1.70830000       0.01520000
H        1.96410000      -0.14580000      -0.08800000
H       -1.08690000      -2.64720000      -0.84530000
H       -1.10180000      -2.66310000       0.94020000
H       -3.52110000      -2.03540000      -0.85740000
H       -3.53240000      -2.02560000       0.92570000
