17
Properties=species:S:1:pos:R:3 gdb_87947=T pbc="F F F"
O       -0.13160000       1.35390000      -0.29490000
C       -0.04350000      -0.02530000      -0.10640000
C       -0.37390000      -0.61310000       1.24590000
C       -1.33830000      -0.76250000       0.09600000
C       -2.65870000      -0.00530000       0.05550000
O       -3.38600000      -0.55960000      -1.05470000
C       -2.85690000      -1.74490000      -1.46060000
O       -3.33240000      -2.39000000      -2.34800000
C       -1.62880000      -2.06920000      -0.61020000
H        0.59910000       1.77190000       0.17240000
H        0.71940000      -0.52480000      -0.70470000
H        0.16950000      -1.48830000       1.58730000
H       -0.64240000       0.09140000       2.02800000
H       -3.25190000      -0.15530000       0.96560000
H       -2.52420000       1.06310000      -0.11810000
H       -0.82150000      -2.44080000      -1.24450000
H       -1.89870000      -2.87320000       0.08570000
