20
Properties=species:S:1:pos:R:3 gdb_119237=T pbc="F F F"
C       -0.23460000       0.81430000      -0.23720000
O       -0.00940000       0.43850000       1.10830000
C        1.05900000      -0.46470000       1.31650000
C        0.71080000      -1.91590000       1.01230000
C        0.98710000      -2.97790000       2.05610000
N       -0.36700000      -2.64100000       1.70520000
C       -1.18920000      -1.93950000       2.68730000
C        0.87870000      -2.37730000      -0.40190000
O        1.47200000      -1.77030000      -1.25910000
H       -0.63820000      -0.00670000      -0.84400000
H       -0.96500000       1.62710000      -0.21560000
H        0.68800000       1.16940000      -0.71670000
H        1.92890000      -0.19280000       0.70210000
H        1.33640000      -0.35420000       2.36780000
H        1.33780000      -3.96470000       1.76200000
H        1.39580000      -2.60930000       2.99720000
H       -0.62530000      -1.28330000       3.36460000
H       -1.93230000      -1.33270000       2.16690000
H       -1.70520000      -2.69310000       3.29020000
H        0.41120000      -3.36840000      -0.59290000
