18
Properties=species:S:1:pos:R:3 gdb_110516=T pbc="F F F"
C        0.08380000       1.25790000       0.20610000
O       -0.00060000      -0.08970000      -0.22150000
C       -1.27360000      -0.64550000      -0.05880000
C       -1.47970000      -2.05770000      -0.57220000
C       -2.41170000      -2.38420000       0.53680000
N       -1.08620000      -3.04910000       0.48910000
C       -0.59900000      -2.21280000       1.63900000
C       -1.70360000      -1.19270000       1.32960000
O       -2.21660000      -0.28300000       2.23320000
H        1.10340000       1.59520000       0.00650000
H       -0.61860000       1.89790000      -0.34950000
H       -0.12940000       1.36200000       1.27780000
H       -2.05610000       0.02450000      -0.44670000
H       -1.46950000      -2.40890000      -1.59500000
H       -3.36750000      -2.88890000       0.56920000
H       -0.77310000      -2.77170000       2.56420000
H        0.44080000      -1.87920000       1.57390000
H       -2.35950000      -0.72800000       3.07580000
