15
Properties=species:S:1:pos:R:3 gdb_50283=T pbc="F F F"
O       -0.09550000      -0.04580000      -0.43680000
C       -0.04920000       1.10020000      -0.06790000
C        1.21720000       1.91850000      -0.01350000
C        1.24130000       3.26740000      -0.83260000
C        1.45570000       4.02460000       0.48100000
O        0.37460000       3.72190000       1.34200000
C        1.42600000       2.75960000       1.27340000
C        2.18680000       2.41340000       2.50010000
O        2.18770000       3.07420000       3.50610000
H       -0.96010000       1.64470000       0.26050000
H        2.07440000       1.28350000      -0.24640000
H        2.09140000       3.30800000      -1.51520000
H        0.32700000       3.53570000      -1.36730000
H        2.00770000       4.93600000       0.67860000
H        2.78890000       1.48320000       2.40170000
