14
Properties=species:S:1:pos:R:3 gdb_26799=T pbc="F F F"
N        0.19400000       1.36260000       0.10850000
C        0.00830000       0.00190000       0.02660000
C       -1.11220000      -0.78260000       0.00720000
N       -2.44010000      -0.30420000      -0.02510000
N       -0.71900000      -2.10810000       0.00900000
C        0.58030000      -2.08330000       0.02260000
O        1.09610000      -0.79780000       0.04770000
C        1.49630000      -3.14840000       0.00410000
C        2.28640000      -4.05700000      -0.00850000
H        0.98770000       1.70580000      -0.41730000
H       -0.65840000       1.85780000      -0.12260000
H       -2.90240000      -0.43350000       0.87130000
H       -2.98580000      -0.82190000      -0.70770000
H        2.97710000      -4.86360000      -0.01990000
