21
Properties=species:S:1:pos:R:3 gdb_108260=T pbc="F F F"
O       -0.06710000       1.42620000       0.18290000
C        0.00310000       0.00410000       0.23550000
C       -1.38470000      -0.52880000      -0.00440000
C       -1.97240000      -0.40360000      -1.43830000
C       -2.27220000      -1.93530000      -1.46570000
C       -1.71390000      -2.06430000      -0.02270000
O       -0.68100000      -2.98880000       0.19620000
C       -2.75280000      -1.86220000       1.11370000
C       -2.44240000      -0.33240000       1.11770000
H        0.81600000       1.77430000       0.33690000
H        0.69160000      -0.39020000      -0.52880000
H        0.37150000      -0.34160000       1.21450000
H       -2.84250000       0.25150000      -1.52360000
H       -1.23660000      -0.08890000      -2.18200000
H       -3.31590000      -2.23040000      -1.60910000
H       -1.65010000      -2.47760000      -2.18220000
H       -1.05500000      -3.87630000       0.15280000
H       -3.78200000      -2.15480000       0.88510000
H       -2.43930000      -2.36280000       2.03320000
H       -2.01460000       0.02350000       2.05780000
H       -3.27680000       0.32210000       0.85540000
