13
Properties=species:S:1:pos:R:3 gdb_131394=T pbc="F F F"
O        0.35800000       1.10320000       0.63410000
C        0.13200000      -0.17480000       0.27480000
N        0.29120000      -0.61800000      -0.96150000
N       -0.03780000      -1.93160000      -0.88850000
C       -0.38590000      -2.32750000       0.35560000
C       -0.28750000      -1.20480000       1.14990000
O       -0.62310000      -1.11560000       2.48000000
C        0.32800000      -0.63950000       3.33490000
O        0.10550000      -0.48040000       4.49290000
H        0.62340000       1.58690000      -0.15820000
H       -0.00080000      -2.48690000      -1.72470000
H       -0.68430000      -3.33600000       0.59000000
H        1.28590000      -0.43760000       2.82610000
