21
Properties=species:S:1:pos:R:3 gdb_66317=T pbc="F F F"
O       -0.25100000       1.40990000      -0.15810000
C       -0.04430000       0.02340000      -0.03040000
C        1.10840000      -0.51690000      -0.85520000
C        2.46820000       0.07220000      -0.45720000
C        3.62840000      -0.48750000      -1.29830000
C        4.93720000       0.19440000      -0.97450000
O        5.93990000      -0.36360000      -0.61080000
C       -0.38900000      -0.60590000       1.29820000
C       -1.30620000      -0.77220000       0.10000000
H        0.39500000       1.86000000       0.39610000
H        1.13820000      -1.60860000      -0.75620000
H        0.91470000      -0.29850000      -1.91350000
H        2.43520000       1.16350000      -0.57300000
H        2.65990000      -0.12780000       0.60470000
H        3.74950000      -1.56520000      -1.15350000
H        3.41590000      -0.30810000      -2.36270000
H        4.91180000       1.30470000      -1.09120000
H        0.18360000      -1.46360000       1.63580000
H       -0.72430000       0.05740000       2.08770000
H       -2.23170000      -0.20870000       0.10270000
H       -1.35990000      -1.74260000      -0.38110000
