16
Properties=species:S:1:pos:R:3 gdb_49797=T pbc="F F F"
N       -0.00250000       1.35750000       0.00620000
C        0.01470000       0.08680000       0.00220000
N       -1.16820000      -0.65300000       0.00940000
C       -2.41410000      -0.00700000       0.02100000
C       -3.56590000      -0.67000000       0.02820000
C       -3.61820000      -2.16550000       0.02460000
N       -2.27000000      -2.71760000       0.01240000
C       -1.07610000      -2.06180000       0.00460000
O       -0.00640000      -2.64040000      -0.00600000
H        0.94870000       1.71860000      -0.00000000
H        0.88570000      -0.56740000      -0.00640000
H       -2.33000000       1.07110000       0.02320000
H       -4.50280000      -0.12830000       0.03700000
H       -4.16360000      -2.53370000       0.90780000
H       -4.17760000      -2.52900000      -0.85170000
H       -2.15800000      -3.71910000       0.00810000
