18
Properties=species:S:1:pos:R:3 gdb_32220=T pbc="F F F"
C        0.05680000       1.54470000      -0.05850000
C       -0.00120000       0.01230000       0.09040000
C       -1.40730000      -0.53260000       0.04070000
N       -2.02570000      -0.75980000       1.19270000
C       -3.27610000      -1.23970000       1.15580000
C       -3.91000000      -1.49470000      -0.04900000
N       -3.31720000      -1.26740000      -1.22410000
C       -2.07320000      -0.78900000      -1.18890000
N       -1.44570000      -0.61160000      -2.40750000
H        1.09060000       1.90100000      -0.02340000
H       -0.38160000       1.88390000      -1.00410000
H       -0.49960000       2.02630000       0.75060000
H        0.60870000      -0.46300000      -0.68800000
H        0.42620000      -0.27150000       1.05560000
H       -3.76690000      -1.42340000       2.10670000
H       -4.92250000      -1.88920000      -0.08070000
H       -2.08140000      -0.63700000      -3.19160000
H       -0.74110000       0.10480000      -2.46830000
