17
Properties=species:S:1:pos:R:3 gdb_27944=T pbc="F F F"
C       -0.01900000       1.52410000       0.00050000
C        0.01150000       0.01530000      -0.00000000
C       -0.02660000      -0.71330000      -1.18830000
C        0.00190000      -2.11080000      -1.18400000
C       -0.04030000      -2.84670000      -2.46660000
O       -0.02070000      -4.05090000      -2.57490000
C        0.07000000      -2.80530000       0.02770000
C        0.10860000      -2.09300000       1.21850000
C        0.07960000      -0.69900000       1.20190000
H        0.87580000       1.94040000       0.47640000
H       -0.07270000       1.92170000      -1.01620000
H       -0.88380000       1.90470000       0.55520000
H       -0.07970000      -0.18950000      -2.13990000
H       -0.09370000      -2.19220000      -3.36650000
H        0.09100000      -3.88890000       0.00700000
H        0.16150000      -2.61850000       2.16630000
H        0.11030000      -0.15330000       2.14100000
