21
Properties=species:S:1:pos:R:3 gdb_68990=T pbc="F F F"
C        0.08880000       1.54150000       0.07430000
C        0.07410000       0.04070000       0.01830000
C       -0.89270000      -0.80120000       0.80500000
C        0.58510000      -1.00900000       1.02960000
C        1.16460000      -1.85370000      -0.11040000
C        0.64430000      -0.79580000      -1.13690000
C        1.22000000      -0.81920000       2.35290000
C        2.02050000      -1.86690000       3.00440000
O        2.65440000      -0.74830000       2.38250000
H        1.07930000       1.94030000      -0.17180000
H       -0.62780000       1.96940000      -0.63800000
H       -0.18170000       1.90940000       1.06960000
H       -1.41380000      -0.27800000       1.60240000
H       -1.48580000      -1.57940000       0.32740000
H        2.25490000      -1.89470000      -0.07580000
H        0.76980000      -2.87100000      -0.20530000
H       -0.08170000      -1.14360000      -1.87980000
H        1.46150000      -0.29220000      -1.65920000
H        0.73290000      -0.08810000       3.00100000
H        2.08790000      -1.90210000       4.09130000
H        2.16170000      -2.82240000       2.50080000
