17
Properties=species:S:1:pos:R:3 gdb_35692=T pbc="F F F"
N       -0.03220000      -1.17990000      -0.10440000
C       -0.04800000      -0.02830000      -0.00080000
C       -0.05320000       1.41910000       0.11790000
C       -0.09030000       1.96880000       1.57820000
N        1.35280000       2.26170000       1.47390000
C        1.35400000       2.10080000       0.02080000
C        2.54330000       1.48120000      -0.73030000
O        2.51930000       2.53970000      -1.71500000
C        1.54300000       3.27950000      -0.96600000
H       -0.80450000       1.83460000      -0.55630000
H       -0.74460000       2.84530000       1.66130000
H       -0.34960000       1.25050000       2.35990000
H        1.66670000       3.15800000       1.82930000
H        3.46780000       1.48060000      -0.13860000
H        2.39010000       0.49160000      -1.17400000
H        0.67940000       3.57290000      -1.57620000
H        1.97040000       4.17800000      -0.49500000
