19
Properties=species:S:1:pos:R:3 gdb_117878=T pbc="F F F"
C       -0.09310000       1.52560000      -0.05400000
C       -0.02480000       0.01620000       0.10230000
O       -1.34230000      -0.49720000      -0.01910000
C       -1.42760000      -1.91370000       0.01470000
C       -1.40300000      -2.46820000       1.45100000
C       -2.65490000      -2.31290000      -0.67150000
C       -3.66320000      -2.68780000      -1.22040000
C       -4.87710000      -3.08200000      -1.88590000
O       -5.21050000      -4.22800000      -2.08420000
H        0.90730000       1.96060000       0.02830000
H       -0.51120000       1.79120000      -1.02870000
H       -0.72720000       1.96290000       0.72210000
H        0.62210000      -0.42610000      -0.67340000
H        0.41210000      -0.24560000       1.07830000
H       -0.57990000      -2.34600000      -0.54490000
H       -1.48770000      -3.55800000       1.44080000
H       -0.46550000      -2.19900000       1.94390000
H       -2.23590000      -2.05330000       2.02330000
H       -5.50630000      -2.23010000      -2.21510000
