22
Properties=species:S:1:pos:R:3 gdb_111499=T pbc="F F F"
C       -0.06570000       1.53260000       0.11490000
C       -0.05030000       0.00410000       0.01650000
C        0.61080000      -0.52510000      -1.26240000
C        0.73600000      -2.04350000      -1.34070000
C       -0.44940000      -2.83550000      -1.76160000
N        0.60760000      -2.50480000      -2.73690000
C        0.31540000      -1.30340000      -3.53930000
C       -0.08440000      -0.14520000      -2.59440000
O       -1.49420000      -0.05990000      -2.37780000
H        0.94550000       1.94930000       0.03940000
H       -0.67380000       1.96750000      -0.68350000
H       -0.48700000       1.85980000       1.07060000
H        0.49010000      -0.41290000       0.87580000
H       -1.07320000      -0.37850000       0.07470000
H        1.63000000      -0.11610000      -1.31390000
H        1.51470000      -2.51490000      -0.74640000
H       -0.50130000      -3.89140000      -1.51050000
H       -1.40410000      -2.32660000      -1.83910000
H        1.23090000      -1.04080000      -4.08280000
H       -0.46320000      -1.51210000      -4.28240000
H        0.28460000       0.81800000      -2.97190000
H       -1.91020000       0.13770000      -3.22250000
