13
Properties=species:S:1:pos:R:3 gdb_133408=T pbc="F F F"
O        0.04050000       1.32660000       0.06900000
C       -0.03800000      -0.02350000       0.00710000
C       -1.21640000      -0.68660000       0.01250000
C       -1.23130000      -2.13310000       0.00140000
N       -2.30810000      -2.83570000       0.00980000
C        0.13610000      -2.68870000      -0.03550000
F        0.22340000      -4.01270000      -0.04790000
N        1.24460000      -2.05380000      -0.04210000
N        1.15850000      -0.69560000      -0.06040000
H        0.78750000       1.64010000      -0.45500000
H       -2.14800000      -0.13880000       0.00620000
H       -2.07440000      -3.82890000      -0.01680000
H        2.01390000      -0.23670000       0.21110000
