18
Properties=species:S:1:pos:R:3 gdb_17797=T pbc="F F F"
C       -0.01520000       1.35330000      -0.16400000
C        1.48180000       1.51470000       0.16670000
C        1.35750000       0.08570000       0.74620000
O       -0.01670000      -0.01410000       0.29810000
C        2.22660000      -1.00660000       0.16490000
C        3.63130000      -1.13380000       0.79850000
O        3.27260000      -2.36330000       1.45800000
C        2.00220000      -2.40970000       0.77200000
H       -0.69180000       1.98340000       0.42710000
H       -0.29550000       1.42880000      -1.22090000
H        2.13590000       1.58810000      -0.70500000
H        1.73840000       2.30220000       0.87600000
H        1.40830000       0.04970000       1.84500000
H        2.20150000      -0.96290000      -0.92650000
H        4.45080000      -1.27380000       0.08150000
H        3.91680000      -0.35010000       1.51240000
H        1.15860000      -2.50690000       1.46520000
H        1.96120000      -3.22790000       0.04210000
