14
Properties=species:S:1:pos:R:3 gdb_23702=T pbc="F F F"
C       -0.01100000       1.51760000       0.00400000
C       -0.00110000       0.01100000       0.01050000
C       -0.09290000      -0.72450000      -1.16860000
N       -0.08940000      -2.06270000      -1.22950000
C        0.00760000      -2.70720000      -0.09280000
F        0.01030000      -4.03720000      -0.16360000
C        0.10640000      -2.10910000       1.16160000
C        0.10070000      -0.72440000       1.19860000
H        0.90680000       1.92670000       0.44070000
H       -0.09750000       1.90640000      -1.01400000
H       -0.84990000       1.91570000       0.58560000
H       -0.17420000      -0.21000000      -2.12370000
H        0.18330000      -2.71640000       2.05480000
H        0.17550000      -0.20910000       2.15180000
