16
Properties=species:S:1:pos:R:3 gdb_47382=T pbc="F F F"
O       -0.04850000      -0.07400000       0.02270000
C       -0.03040000       1.14080000       0.03610000
C       -1.32310000       1.95190000       0.11230000
O       -1.15400000       3.32500000       0.41660000
C       -0.15340000       3.91440000      -0.37920000
C        1.21830000       3.32660000      -0.00060000
N        1.12160000       1.86770000      -0.05850000
C        2.27270000       3.81820000      -0.88270000
C        3.13460000       4.23210000      -1.60990000
H       -1.84680000       1.82170000      -0.84870000
H       -1.94770000       1.51750000       0.89500000
H       -0.33940000       3.74910000      -1.45160000
H       -0.16330000       4.98780000      -0.17990000
H        1.44060000       3.64670000       1.02860000
H        1.97540000       1.32870000      -0.09120000
H        3.89980000       4.59720000      -2.25020000
