17
Properties=species:S:1:pos:R:3 gdb_3330=T pbc="F F F"
C       -0.00480000       1.50630000       0.42790000
C        1.26750000       0.84940000      -0.05040000
C        2.36390000       0.50630000       0.94430000
C        1.89650000      -0.34660000       2.09290000
C        0.75430000      -1.03210000       2.10130000
C       -0.23060000      -1.05090000       0.96340000
C       -0.02850000       0.07150000      -0.04080000
H       -0.10430000       1.68530000       1.49400000
H       -0.46360000       2.26310000      -0.19910000
H        1.63120000       1.17040000      -1.02210000
H        3.17440000      -0.02210000       0.41970000
H        2.82450000       1.42690000       1.33010000
H        2.56140000      -0.40580000       2.95150000
H        0.50320000      -1.64110000       2.96660000
H       -0.15110000      -2.01810000       0.44420000
H       -1.25540000      -1.02190000       1.36020000
H       -0.49340000      -0.10470000      -1.00650000
