9
Properties=species:S:1:pos:R:3 gdb_21762=T pbc="F F F"
O       -0.01620000       1.31820000       0.00930000
N        1.33680000       1.77270000      -0.00100000
C        2.08400000       0.71210000      -0.01410000
N        1.31150000      -0.42190000      -0.01300000
N        1.32110000      -1.78920000      -0.02060000
N        0.06510000      -2.11090000      -0.01070000
N       -0.78960000      -1.03600000       0.00350000
C        0.02770000      -0.01440000       0.00150000
H        3.16150000       0.74250000      -0.02410000
