21
Properties=species:S:1:pos:R:3 gdb_74408=T pbc="F F F"
C       -0.03760000       1.50650000       0.05480000
C       -0.04410000       0.01800000      -0.02680000
C       -0.05390000      -0.78940000      -1.08880000
C        0.02890000      -2.25050000      -0.59000000
C       -0.36240000      -3.33420000      -1.57970000
C       -0.83200000      -2.07760000       0.70290000
C        0.04940000      -0.90320000       1.21590000
C        1.41900000      -1.61000000       1.16700000
C        1.40850000      -2.40210000       0.09610000
H        0.88180000       1.87160000       0.53260000
H       -0.10790000       1.96540000      -0.93560000
H       -0.87140000       1.88020000       0.66310000
H       -0.05640000      -0.50880000      -2.13520000
H        0.31500000      -3.34880000      -2.44120000
H       -0.32890000      -4.32540000      -1.11510000
H       -1.37710000      -3.17430000      -1.95930000
H       -1.86500000      -1.78610000       0.48950000
H       -0.80640000      -2.95570000       1.35590000
H       -0.21610000      -0.43870000       2.16650000
H        2.22920000      -1.42910000       1.86080000
H        2.20910000      -3.01960000      -0.29160000
