20
Properties=species:S:1:pos:R:3 gdb_58617=T pbc="F F F"
C        0.93040000      -2.34620000       0.49200000
C        0.25190000      -0.99450000       0.23730000
O        0.48470000      -0.07570000       1.28860000
C        0.62100000      -0.39500000      -1.12200000
C       -0.15940000      -0.85880000      -2.31040000
N       -0.36150000       0.49170000      -1.80180000
C        2.04290000       0.09450000      -1.26690000
C        2.49220000       0.61820000      -2.61230000
O        2.79520000       0.07880000      -0.30960000
H        0.66150000      -3.07740000      -0.27770000
H        2.01750000      -2.23770000       0.50350000
H        0.61130000      -2.73200000       1.46380000
H       -0.83610000      -1.15140000       0.22810000
H        1.43520000       0.10350000       1.26650000
H        0.30270000      -0.92120000      -3.29090000
H       -0.91560000      -1.61720000      -2.12030000
H       -1.20120000       0.54860000      -1.22950000
H        1.72190000       1.25580000      -3.05250000
H        3.42750000       1.16480000      -2.48940000
H        2.66420000      -0.22100000      -3.29660000
