15
Properties=species:S:1:pos:R:3 gdb_44988=T pbc="F F F"
O        0.09980000       0.10170000      -0.41540000
C       -0.00460000       1.22090000      -0.01600000
C       -1.28420000       2.03990000       0.18800000
C       -0.82020000       3.32840000       0.82220000
C       -0.06880000       3.23990000       2.12950000
C        0.69960000       3.24910000       0.82840000
O        1.08500000       1.96480000       0.35520000
C        1.57420000       4.31060000       0.44570000
C        2.30310000       5.21420000       0.13500000
H       -1.75290000       2.20170000      -0.78740000
H       -1.98440000       1.45800000       0.79380000
H       -1.30400000       4.26120000       0.56370000
H       -0.01890000       4.13640000       2.73570000
H       -0.07570000       2.30510000       2.68170000
H        2.95080000       6.00860000      -0.14350000
