23
Properties=species:S:1:pos:R:3 gdb_77697=T pbc="F F F"
C       -0.28740000       1.38970000      -0.10460000
C       -0.04100000      -0.11390000      -0.00550000
C        0.76200000      -0.68420000      -1.18350000
C        0.29690000      -1.49590000      -2.30900000
O        0.74020000      -0.14390000      -2.49480000
C        2.01910000      -0.83820000      -0.33270000
C        1.12730000      -0.61380000       0.93740000
C        1.67580000       0.36840000       1.96780000
C        0.75550000      -1.94160000       1.60440000
H        0.62850000       1.94320000      -0.33300000
H       -0.99720000       1.59950000      -0.91030000
H       -0.70190000       1.78700000       0.82730000
H       -0.99200000      -0.62420000       0.18420000
H        0.94730000      -2.26080000      -2.73290000
H       -0.77040000      -1.66100000      -2.45610000
H        2.56280000      -1.78480000      -0.39780000
H        2.72160000      -0.01670000      -0.50410000
H        1.96120000       1.32250000       1.51620000
H        0.94020000       0.57510000       2.75370000
H        2.56690000      -0.04650000       2.45330000
H        1.62550000      -2.39360000       2.09440000
H       -0.01900000      -1.79420000       2.36590000
H        0.37200000      -2.66280000       0.87470000
