23
Properties=species:S:1:pos:R:3 gdb_92342=T pbc="F F F"
C       -0.13500000       1.55240000       0.01100000
C       -0.05770000       0.01560000       0.00410000
C        0.48550000      -0.56590000      -1.33040000
C        1.99810000      -0.83750000      -1.31240000
C        2.88290000       0.40380000      -1.04560000
C        3.02480000       0.40410000       0.50070000
C        2.20340000      -0.83720000       0.92450000
C        0.71950000      -0.56550000       1.21760000
O        2.29090000      -1.70330000      -0.21130000
H        0.84190000       2.03330000      -0.07870000
H       -0.75350000       1.90920000      -0.81990000
H       -0.59190000       1.90940000       0.94050000
H       -1.09470000      -0.32830000       0.09940000
H       -0.00100000      -1.52800000      -1.52630000
H        0.22730000       0.09550000      -2.16650000
H        2.29030000      -1.36630000      -2.22400000
H        3.85790000       0.27540000      -1.52160000
H        2.44530000       1.32250000      -1.44270000
H        4.07030000       0.27580000       0.79120000
H        2.66690000       1.32290000       0.97050000
H        2.65680000      -1.36570000       1.76780000
H        0.61780000       0.09610000       2.08650000
H        0.27670000      -1.52760000       1.49900000
