16
Properties=species:S:1:pos:R:3 gdb_79488=T pbc="F F F"
C        0.08000000       1.52110000      -0.14910000
N        0.03990000       0.06490000      -0.03690000
C       -1.11690000      -0.49250000       0.71650000
C       -0.29210000      -1.71830000       1.19660000
O       -0.66160000      -1.58400000       2.59210000
C       -0.54350000      -0.20760000       2.15270000
C        0.69590000      -0.49630000       1.19090000
C        2.09510000      -0.43200000       1.46350000
C        3.27160000      -0.36460000       1.70440000
H        1.08900000       1.82800000      -0.43930000
H       -0.60980000       1.83630000      -0.93810000
H       -0.18870000       2.05430000       0.77850000
H       -2.14720000      -0.45460000       0.36510000
H       -0.16650000      -2.70740000       0.76110000
H       -0.72030000       0.58090000       2.88310000
H        4.31130000      -0.31220000       1.91540000
