16
Properties=species:S:1:pos:R:3 gdb_14327=T pbc="F F F"
O        0.04670000      -0.03210000      -0.01820000
C       -0.04060000       1.15900000       0.03110000
C       -1.30560000       2.00940000       0.17060000
C       -0.78770000       3.41180000       0.44510000
C       -0.36300000       3.75360000       1.90790000
C        1.10350000       3.95870000       1.42660000
C        0.72170000       3.35860000       0.05680000
O        1.05460000       1.97040000      -0.04880000
H       -1.86380000       1.93770000      -0.76920000
H       -1.93960000       1.59430000       0.95770000
H       -1.36080000       4.20100000      -0.04150000
H       -0.84900000       4.62460000       2.35090000
H       -0.48390000       2.90970000       2.59250000
H        1.38380000       5.01200000       1.34690000
H        1.88810000       3.42250000       1.96330000
H        1.07500000       3.86220000      -0.84570000
