21
Properties=species:S:1:pos:R:3 gdb_111062=T pbc="F F F"
C       -0.17020000       1.27800000      -0.23400000
O       -0.24470000      -0.13610000      -0.18170000
C       -1.52520000      -0.64260000      -0.05640000
C       -2.53640000      -0.51590000       1.12700000
C       -3.18290000      -1.47200000       0.07730000
C       -2.74320000      -0.46060000      -1.02150000
C       -1.78610000      -2.17080000      -0.03460000
C       -1.33550000      -3.01250000      -1.21740000
O        0.08410000      -3.07860000      -1.25890000
H        0.88520000       1.53960000      -0.33210000
H       -0.72170000       1.67910000      -1.09520000
H       -0.56820000       1.73350000       0.68270000
H       -2.23410000      -0.96250000       2.07740000
H       -3.03050000       0.44930000       1.26430000
H       -4.15300000      -1.95560000       0.16180000
H       -3.24260000       0.51150000      -0.99910000
H       -2.64550000      -0.82810000      -2.04280000
H       -1.45360000      -2.64810000       0.89370000
H       -1.68660000      -4.04430000      -1.10370000
H       -1.74190000      -2.64120000      -2.16940000
H        0.40870000      -2.17300000      -1.18350000
