12
Properties=species:S:1:pos:R:3 gdb_3737=T pbc="F F F"
C       -0.02190000       1.54720000       0.01590000
C        0.00690000       0.02000000      -0.00740000
N        0.68390000      -0.49410000      -1.19630000
N        0.07890000      -0.73460000      -2.34830000
N        1.02240000      -1.12270000      -3.15230000
N        2.19400000      -1.11400000      -2.48900000
N        1.98570000      -0.71990000      -1.26890000
H        0.99250000       1.95380000       0.02020000
H       -0.55520000       1.93800000      -0.85420000
H       -0.53580000       1.88640000       0.91940000
H        0.54670000      -0.38520000       0.85010000
H       -0.99990000      -0.40100000      -0.02340000
