15
Properties=species:S:1:pos:R:3 gdb_130782=T pbc="F F F"
O       -0.13300000       0.13880000       1.06160000
C       -0.07880000       1.20870000       0.52600000
O       -1.14800000       2.01840000       0.24810000
N       -0.71210000       3.21190000      -0.38250000
C        0.56670000       3.08350000      -0.46750000
N        1.03250000       1.90270000       0.04210000
C        2.39440000       1.47600000       0.17130000
C        2.76090000       0.10610000      -0.32350000
C        3.22860000       1.32140000      -1.07810000
H        1.20720000       3.83400000      -0.90660000
H        2.88540000       1.83670000       1.06990000
H        3.47680000      -0.45400000       0.26550000
H        1.96680000      -0.49000000      -0.75420000
H        2.75180000       1.53750000      -2.02750000
H        4.27130000       1.61050000      -1.01840000
