15
Properties=species:S:1:pos:R:3 gdb_101982=T pbc="F F F"
O        0.23820000       1.45920000       0.23480000
C        0.16790000       0.05890000       0.14600000
C       -1.30570000      -0.44020000       0.00910000
C       -2.09590000      -0.09100000       1.27540000
O       -1.76000000       0.76310000       2.05830000
C       -1.98730000       0.25070000      -1.17940000
O       -2.82430000      -0.29700000      -1.85010000
C       -1.34070000      -1.95160000      -0.19660000
O       -1.54090000      -2.72800000       0.70110000
H       -0.19870000       1.69360000       1.06580000
H        0.73880000      -0.23710000      -0.74040000
H        0.61680000      -0.43830000       1.01700000
H       -3.02180000      -0.67660000       1.42000000
H       -1.64860000       1.28650000      -1.36430000
H       -1.13240000      -2.29100000      -1.23090000
