25
Properties=species:S:1:pos:R:3 gdb_103167=T pbc="F F F"
C       -0.11480000       1.59830000      -0.03050000
C        0.05840000       0.08920000       0.05150000
C        1.05830000      -0.62610000      -0.89440000
C        1.39480000      -1.61170000       0.25580000
C        2.82090000      -2.12340000       0.40450000
C        0.79380000      -0.57390000       1.27130000
C        1.84120000       0.32750000       1.92970000
C       -0.12530000      -1.17400000       2.32630000
O       -0.81270000      -0.11380000       2.98230000
H        0.84340000       2.12340000       0.03830000
H       -0.57750000       1.88330000      -0.98230000
H       -0.75650000       1.95950000       0.77930000
H       -0.92600000      -0.38480000      -0.04530000
H        0.67210000      -1.04420000      -1.82810000
H        1.91370000       0.01540000      -1.13520000
H        0.71350000      -2.47020000       0.19870000
H        3.54480000      -1.30360000       0.44630000
H        2.94500000      -2.72530000       1.31200000
H        3.09040000      -2.75650000      -0.44850000
H        2.50530000       0.79670000       1.19820000
H        1.35350000       1.11880000       2.50390000
H        2.46710000      -0.24860000       2.62070000
H       -0.83900000      -1.85940000       1.84120000
H        0.46490000      -1.76730000       3.04610000
H       -1.38850000      -0.49450000       3.65140000
