19
Properties=species:S:1:pos:R:3 gdb_38107=T pbc="F F F"
C       -0.07560000       1.49040000       0.02970000
C        1.31290000       0.85840000       0.02580000
C        2.32820000       0.38060000       1.00750000
C        2.27160000      -0.90810000       1.38270000
C        1.02890000      -1.76220000       1.09630000
C       -0.14810000      -0.78560000       1.28650000
C        0.05360000       0.00010000      -0.01200000
C        0.20060000      -1.10070000      -1.02400000
C        0.82740000      -2.10850000      -0.39840000
H       -0.49810000       1.90080000       0.94230000
H       -0.32180000       2.05880000      -0.86240000
H        1.76210000       0.98080000      -0.96230000
H        3.18650000       1.00060000       1.25860000
H        3.06980000      -1.34590000       1.97580000
H        1.00980000      -2.64320000       1.74160000
H       -1.11860000      -1.29350000       1.26950000
H       -0.06410000      -0.18560000       2.19470000
H       -0.02840000      -1.03030000      -2.08040000
H        1.19270000      -3.01990000      -0.85510000
