20
Properties=species:S:1:pos:R:3 gdb_55864=T pbc="F F F"
C       -0.01920000       1.57790000       0.10550000
C        0.10600000       0.07100000       0.12670000
C       -0.60050000      -0.64120000      -1.00750000
O        1.42920000      -0.43860000       0.40280000
C        0.38660000      -0.68330000       1.36700000
C        0.55500000      -0.08650000       2.74820000
C        1.74430000      -0.67190000       3.52600000
N        2.93170000      -0.59520000       2.85980000
O        1.63290000      -1.11670000       4.65090000
H        0.57870000       2.05130000       0.88520000
H        0.32350000       1.96550000      -0.85990000
H       -1.06430000       1.87930000       0.23290000
H       -0.22040000      -0.29340000      -1.97400000
H       -0.44610000      -1.72110000      -0.94760000
H       -1.67670000      -0.43980000      -0.97850000
H        0.06310000      -1.72630000       1.38070000
H        0.68920000       0.99740000       2.68990000
H       -0.33760000      -0.28510000       3.34570000
H        2.94800000      -0.37670000       1.87510000
H        3.73230000      -1.03650000       3.28240000
