12
Properties=species:S:1:pos:R:3 gdb_23839=T pbc="F F F"
F       -0.03400000       0.05550000       0.00400000
C       -0.03980000       1.38410000       0.01090000
N       -1.18200000       1.96440000       0.02910000
N       -1.15590000       3.31750000       0.03580000
C       -0.03490000       4.15520000       0.02520000
N       -0.05290000       5.43890000       0.03210000
C        1.21720000       3.40960000       0.00480000
C        1.22450000       2.06130000      -0.00230000
H       -2.07430000       3.73440000       0.05010000
H       -1.00560000       5.80720000       0.04660000
H        2.12420000       4.00060000      -0.00420000
H        2.13750000       1.47830000      -0.01740000
