19
Properties=species:S:1:pos:R:3 gdb_126572=T pbc="F F F"
C       -0.20240000       1.51640000      -0.05400000
C       -0.26090000       0.00240000      -0.26900000
C        0.97600000      -0.53590000      -1.01090000
C        0.93320000      -2.01800000      -1.22870000
N        1.78700000      -2.78880000      -0.59630000
O        1.46630000      -4.10680000      -1.00430000
C        0.44070000      -4.05480000      -1.86160000
N        0.05010000      -5.25540000      -2.40570000
C        0.04240000      -2.76170000      -2.05360000
H        0.67800000       1.79830000       0.53390000
H       -0.14690000       2.05140000      -1.00870000
H       -1.08810000       1.87620000       0.47860000
H       -0.34370000      -0.50960000       0.69690000
H       -1.16570000      -0.25750000      -0.83210000
H        1.06420000      -0.03100000      -1.98160000
H        1.88150000      -0.30010000      -0.44280000
H        0.30080000      -6.05980000      -1.84810000
H       -0.90700000      -5.28400000      -2.72280000
H       -0.74740000      -2.39690000      -2.68810000
