15
Properties=species:S:1:pos:R:3 gdb_15612=T pbc="F F F"
C       -0.01260000       1.44140000       0.05590000
N       -0.00190000      -0.01060000       0.03060000
C       -1.08990000      -0.63860000      -0.05920000
O       -2.34010000      -0.09170000      -0.11700000
C       -3.33390000      -1.09650000      -0.42020000
C       -2.70340000      -2.45120000      -0.08500000
C       -1.20760000      -2.14900000      -0.09180000
O       -0.30040000      -2.93340000      -0.10870000
H        0.83170000       1.80880000      -0.53520000
H       -0.94160000       1.89060000      -0.31300000
H        0.14950000       1.78170000       1.08650000
H       -4.22110000      -0.86110000       0.17020000
H       -3.59060000      -1.01910000      -1.48270000
H       -2.97690000      -2.78740000       0.92160000
H       -2.95430000      -3.24970000      -0.78480000
