21
Properties=species:S:1:pos:R:3 gdb_116519=T pbc="F F F"
O        0.28050000       1.32270000      -0.16820000
C        0.13280000      -0.08860000      -0.22210000
C       -1.30700000      -0.43680000       0.16010000
C       -2.29930000       0.14790000      -0.86040000
O       -3.62510000       0.15740000      -0.36690000
C       -4.39600000      -1.01410000      -0.53870000
C       -3.63240000      -2.34110000      -0.44960000
O       -2.74120000      -2.40920000       0.64370000
C       -1.43490000      -1.95530000       0.34380000
H        1.16490000       1.54650000      -0.47170000
H        0.35300000      -0.47190000      -1.23310000
H        0.83020000      -0.58580000       0.47120000
H       -1.52570000       0.04890000       1.11860000
H       -2.03410000       1.19330000      -1.03580000
H       -2.22440000      -0.37680000      -1.82690000
H       -5.15540000      -0.97570000       0.24970000
H       -4.92400000      -1.00060000      -1.50890000
H       -4.37040000      -3.14330000      -0.32520000
H       -3.09240000      -2.54440000      -1.38710000
H       -1.06440000      -2.46920000      -0.56200000
H       -0.80940000      -2.28010000       1.18210000
