25
Properties=species:S:1:pos:R:3 gdb_100772=T pbc="F F F"
C        0.04360000       1.54700000       0.03560000
C       -0.00830000       0.01080000       0.04100000
C        0.71270000      -0.52580000       1.28230000
O        2.05430000      -0.04930000       1.25760000
C       -1.45470000      -0.53780000      -0.07820000
C       -2.15340000      -0.01540000      -1.34610000
C       -1.50810000      -2.06040000      -0.05940000
C       -1.69330000      -2.84290000       1.21790000
C       -2.81090000      -2.77200000       0.20840000
H        1.06040000       1.88490000       0.24380000
H       -0.26280000       1.96580000      -0.92560000
H       -0.61540000       1.96180000       0.80900000
H        0.55960000      -0.35310000      -0.82820000
H        0.18800000      -0.17970000       2.18990000
H        0.69470000      -1.62220000       1.28850000
H        2.50650000      -0.39210000       2.03340000
H       -2.02360000      -0.17540000       0.79250000
H       -3.15350000      -0.44870000      -1.43720000
H       -2.25930000       1.07200000      -1.34160000
H       -1.58860000      -0.29350000      -2.24410000
H       -0.86960000      -2.52860000      -0.80690000
H       -1.16030000      -3.78030000       1.33660000
H       -1.81460000      -2.28480000       2.14090000
H       -3.67560000      -2.16510000       0.45880000
H       -3.04750000      -3.66080000      -0.36620000
