18
Properties=species:S:1:pos:R:3 gdb_38853=T pbc="F F F"
C       -0.00190000       1.55800000      -0.03500000
O        1.37990000       1.92670000      -0.01670000
C        2.09240000       0.71600000       0.20270000
O        1.33790000      -0.28760000      -0.42640000
C        0.00800000       0.00580000       0.01620000
C       -0.19140000      -0.56390000       1.42730000
C        0.98260000      -0.17640000       2.32450000
N        2.23710000      -0.93230000       2.13030000
C        2.17160000       0.46990000       1.70420000
H       -0.53170000       1.99790000       0.81830000
H       -0.45060000       1.93360000      -0.96040000
H        3.07020000       0.78370000      -0.28110000
H       -0.68700000      -0.43890000      -0.69880000
H       -1.12830000      -0.18110000       1.84840000
H       -0.27290000      -1.65430000       1.37600000
H        0.73320000       0.10890000       3.34310000
H        2.73760000      -1.00040000       3.01300000
H        2.71400000       1.22790000       2.26370000
