19
Properties=species:S:1:pos:R:3 gdb_73088=T pbc="F F F"
C       -0.07080000       1.52380000      -0.04640000
C       -0.00350000       0.00550000      -0.00550000
C       -1.22820000      -0.77010000       0.52220000
O       -0.43910000      -1.44590000       1.52420000
C        0.73350000      -0.65830000       1.18710000
C        1.95540000      -1.44330000       0.84660000
C        2.46940000      -1.38460000      -0.37900000
C        1.77240000      -0.63840000      -1.48450000
O        0.37660000      -0.52270000      -1.26820000
H        0.91370000       1.95440000      -0.25990000
H       -0.75950000       1.84750000      -0.83280000
H       -0.41520000       1.93060000       0.90900000
H       -2.01440000      -0.14900000       0.97000000
H       -1.66500000      -1.46220000      -0.20450000
H        0.95320000       0.05070000       1.99950000
H        2.42470000      -2.01920000       1.63920000
H        3.39990000      -1.88690000      -0.62940000
H        2.23770000       0.35160000      -1.63790000
H        1.87690000      -1.18030000      -2.43050000
