16
Properties=species:S:1:pos:R:3 gdb_31164=T pbc="F F F"
C       -0.11650000       1.48530000      -0.08410000
O       -0.02190000       0.06580000       0.05630000
C       -1.24080000      -0.57290000       0.04260000
C       -1.94530000      -1.00800000       1.14180000
O       -1.67510000      -0.93780000       2.46870000
N       -3.08580000      -1.60640000       0.70950000
C       -3.12840000      -1.59260000      -0.68670000
C       -1.99430000      -0.95300000      -1.11190000
O       -1.64190000      -0.69120000      -2.40480000
H        0.90520000       1.87320000      -0.07740000
H       -0.60570000       1.75920000      -1.02690000
H       -0.68330000       1.92890000       0.74420000
H       -0.76590000      -0.62750000       2.55250000
H       -3.73750000      -2.07650000       1.31130000
H       -3.95280000      -2.01720000      -1.23080000
H       -0.69620000      -0.50490000      -2.40620000
