16
Properties=species:S:1:pos:R:3 gdb_72784=T pbc="F F F"
C       -0.10990000       1.55980000      -0.31890000
C        0.00710000       0.09630000       0.06040000
O        1.09620000      -0.55790000      -0.68440000
C        1.92420000      -0.64940000       0.51960000
C        0.67530000      -0.38030000       1.32620000
C       -0.16740000      -1.19020000       1.98550000
N       -1.43680000      -1.14740000       1.39170000
C       -1.40410000      -0.55640000       0.12680000
O       -2.33340000      -0.45990000      -0.63430000
H        0.86620000       2.04850000      -0.27070000
H       -0.50140000       1.63410000      -1.33780000
H       -0.80150000       2.08280000       0.34870000
H        2.39590000      -1.63030000       0.62910000
H        2.69010000       0.13530000       0.52230000
H        0.03790000      -1.92800000       2.75020000
H       -2.27270000      -1.57340000       1.75900000
