22
Properties=species:S:1:pos:R:3 gdb_88846=T pbc="F F F"
C       -1.51450000      -0.11660000       2.45730000
C       -0.73890000      -0.73770000       1.31500000
C       -0.40380000       0.04210000       0.08990000
N        0.65420000      -0.40660000       0.99200000
C        1.37040000       0.61180000       1.76200000
C        2.04070000       0.00760000       3.02240000
C        3.43640000       0.67390000       3.12260000
C        3.65800000       1.20390000       1.72580000
C        2.54950000       1.16600000       0.99140000
H       -1.37760000       0.96520000       2.52130000
H       -2.58490000      -0.30400000       2.31910000
H       -1.22510000      -0.55470000       3.41900000
H       -0.94140000      -1.80060000       1.18680000
H       -0.42160000      -0.41490000      -0.89650000
H       -0.66600000       1.10070000       0.10080000
H        0.70410000       1.44890000       2.04000000
H        1.43930000       0.13780000       3.92570000
H        2.15320000      -1.06630000       2.84660000
H        3.44630000       1.49330000       3.85520000
H        4.21580000      -0.02760000       3.44160000
H        4.61360000       1.59650000       1.39480000
H        2.45120000       1.51380000      -0.03090000
