21
Properties=species:S:1:pos:R:3 gdb_119141=T pbc="F F F"
C       -0.05910000       1.56670000      -0.63950000
C        0.09940000       0.13210000      -0.12280000
O       -1.16930000      -0.42680000       0.17370000
C        0.87170000      -0.78540000      -1.08190000
C        2.23210000      -0.31860000      -1.58550000
C        2.18980000       0.37690000      -2.94600000
O        3.52950000       0.71540000      -3.27590000
C        0.57000000      -2.22360000      -1.03960000
O        0.01210000      -1.39270000      -2.07300000
H        0.90250000       2.07630000      -0.75050000
H       -0.56960000       1.57440000      -1.60860000
H       -0.66780000       2.13310000       0.06970000
H        0.64760000       0.15390000       0.82810000
H       -1.54460000      -0.68160000      -0.68090000
H        2.68150000       0.35920000      -0.85120000
H        2.91280000      -1.17050000      -1.67710000
H        1.74920000      -0.30820000      -3.68270000
H        1.55280000       1.27220000      -2.90660000
H        3.53240000       1.09930000      -4.15740000
H        1.32270000      -2.93180000      -1.38120000
H       -0.15030000      -2.60050000      -0.31910000
