20
Properties=species:S:1:pos:R:3 gdb_95920=T pbc="F F F"
C        0.26410000       1.60870000      -0.26180000
C        0.01320000       0.13250000       0.02470000
O        0.44340000      -0.62370000      -1.10940000
C        1.34170000      -1.65670000      -0.72350000
C        1.97900000      -1.16780000       0.57330000
C        0.78580000      -0.46120000       1.26610000
C        1.20800000       0.55920000       2.33730000
C       -0.06530000      -1.47900000       1.90210000
N       -0.73220000      -2.27620000       2.40880000
H        1.33180000       1.82200000      -0.36880000
H       -0.22340000       1.86620000      -1.20570000
H       -0.15030000       2.24830000       0.52290000
H       -1.06370000      -0.02560000       0.16530000
H        0.80310000      -2.60210000      -0.56080000
H        2.05990000      -1.80440000      -1.53500000
H        2.40890000      -1.96660000       1.18060000
H        2.75710000      -0.42610000       0.36710000
H        1.86820000       1.31460000       1.90620000
H        0.34010000       1.06150000       2.77310000
H        1.74400000       0.05600000       3.14630000
