25
Properties=species:S:1:pos:R:3 gdb_108820=T pbc="F F F"
C       -0.07230000       1.56840000       0.48360000
C       -0.09900000       0.29400000      -0.37920000
C       -1.38350000      -0.47590000      -0.27610000
C       -2.27530000      -0.68260000      -1.24860000
C       -3.42360000      -1.57210000      -0.82580000
C       -3.30450000      -2.97270000      -1.45520000
C       -3.30290000      -1.52390000       0.73210000
C       -3.82330000      -2.73780000       1.50030000
C       -1.81590000      -1.18100000       0.99600000
H        0.88090000       2.09430000       0.37090000
H       -0.87490000       2.25290000       0.19140000
H       -0.20050000       1.33790000       1.54580000
H        0.07920000       0.56230000      -1.42690000
H        0.73760000      -0.35210000      -0.07680000
H       -2.16890000      -0.31970000      -2.26720000
H       -4.39090000      -1.15470000      -1.13590000
H       -2.36960000      -3.46360000      -1.16460000
H       -4.13640000      -3.62070000      -1.16070000
H       -3.31030000      -2.90120000      -2.54810000
H       -3.88400000      -0.64930000       1.05060000
H       -3.26730000      -3.64720000       1.24960000
H       -3.72660000      -2.58160000       2.58030000
H       -4.88200000      -2.92480000       1.28920000
H       -1.20920000      -2.08630000       1.15480000
H       -1.68960000      -0.57180000       1.89860000
