17
Properties=species:S:1:pos:R:3 gdb_98089=T pbc="F F F"
C       -0.24410000       1.56880000       0.10040000
C        0.18090000       0.10370000       0.07380000
C        0.83000000      -0.30700000      -1.22660000
O        0.99960000       0.43280000      -2.16970000
C        1.30670000      -1.77570000      -1.31850000
O        1.20530000      -2.51850000      -0.37070000
C        1.91760000      -2.19020000      -2.62640000
C        3.10520000      -3.07440000      -2.59280000
O        1.82970000      -3.58500000      -2.92200000
H        0.61460000       2.22960000      -0.04480000
H       -0.95910000       1.78490000      -0.69780000
H       -0.71070000       1.81460000       1.05780000
H        0.88130000      -0.13920000       0.88330000
H       -0.66610000      -0.57400000       0.24500000
H        1.77910000      -1.51460000      -3.46380000
H        3.82340000      -3.01210000      -3.40880000
H        3.49270000      -3.38180000      -1.62320000
