15
Properties=species:S:1:pos:R:3 gdb_29663=T pbc="F F F"
C        0.07420000       1.42370000       0.01830000
N        0.05050000      -0.02190000       0.02910000
C        0.07950000      -0.77650000      -1.12110000
N        0.11570000      -0.33010000      -2.30650000
O        0.06120000      -2.10540000      -0.71970000
C        0.02980000      -2.13690000       0.65070000
C        0.02440000      -0.88150000       1.14150000
C       -0.00550000      -0.43500000       2.47480000
C       -0.03070000      -0.03330000       3.61010000
H        1.02180000       1.79370000      -0.38670000
H       -0.73610000       1.80520000      -0.60920000
H       -0.05010000       1.78290000       1.04040000
H        0.12650000      -1.08840000      -2.98260000
H        0.01250000      -3.10000000       1.12760000
H       -0.05300000       0.30810000       4.61560000
