22
Properties=species:S:1:pos:R:3 gdb_121257=T pbc="F F F"
C        0.09530000       1.55990000      -0.02600000
C        0.07940000       0.02960000       0.01060000
C        0.73360000      -0.54080000       1.27330000
C        0.73540000      -2.06470000       1.32290000
O        1.45500000      -2.56320000       0.18890000
C        2.10380000      -3.78690000       0.51180000
C        2.29580000      -3.76500000       2.01370000
N        2.89860000      -2.49920000       2.48190000
C        1.43140000      -2.68080000       2.52480000
H        1.12060000       1.94490000       0.00590000
H       -0.37520000       1.94260000      -0.93730000
H       -0.44220000       1.98500000       0.82960000
H       -0.95710000      -0.32850000      -0.05560000
H        0.59900000      -0.37150000      -0.86560000
H        1.77300000      -0.20300000       1.34990000
H        0.20650000      -0.16940000       2.16330000
H       -0.30390000      -2.44030000       1.30180000
H        1.48830000      -4.65760000       0.23150000
H        3.04130000      -3.82390000      -0.05300000
H        2.46850000      -4.68710000       2.55820000
H        3.27490000      -2.63890000       3.41670000
H        0.91620000      -2.73880000       3.47770000
