23
Properties=species:S:1:pos:R:3 gdb_95963=T pbc="F F F"
O        0.02100000       1.64200000       0.41290000
C       -0.05400000       0.26230000       0.06000000
C        0.72060000      -0.64760000       1.05190000
C       -0.35110000      -1.36460000       1.92070000
C       -1.67990000      -0.66960000       1.56360000
C       -1.50160000      -0.28010000       0.09420000
C       -2.55370000       0.59660000      -0.63330000
C       -2.45880000      -0.34340000      -1.86600000
C       -1.74150000      -1.39460000      -0.97670000
H       -0.32240000       1.74370000       1.30690000
H        0.36880000       0.22460000      -0.94810000
H        1.34790000      -1.36890000       0.52060000
H        1.39580000      -0.02350000       1.64420000
H       -0.40770000      -2.42410000       1.65100000
H       -0.12590000      -1.32470000       2.98980000
H       -2.55820000      -1.30010000       1.73210000
H       -1.82260000       0.23300000       2.17650000
H       -3.53340000       0.54460000      -0.14810000
H       -2.28350000       1.64560000      -0.77080000
H       -3.39670000      -0.64980000      -2.33460000
H       -1.80480000       0.05910000      -2.64400000
H       -0.85830000      -1.88840000      -1.39350000
H       -2.42630000      -2.16720000      -0.61310000
