18
Properties=species:S:1:pos:R:3 gdb_17298=T pbc="F F F"
O       -0.06360000       1.39470000      -0.05490000
C        0.01740000       0.00100000       0.00740000
C       -1.36770000      -0.69420000      -0.00330000
C       -0.96160000      -1.51290000       1.26800000
C        0.42130000      -0.79490000       1.29020000
C        1.60940000      -1.41270000       0.51060000
C        1.17340000      -2.14050000      -0.72930000
C        1.20880000      -0.63890000      -0.75490000
H        0.82750000       1.75190000       0.03050000
H       -2.16410000       0.02850000       0.18650000
H       -1.61880000      -1.26540000      -0.90060000
H       -1.57790000      -1.28890000       2.14130000
H       -0.92800000      -2.59820000       1.14560000
H        0.70060000      -0.26580000       2.20190000
H        2.59710000      -1.56960000       0.92870000
H        1.97540000      -2.62320000      -1.28000000
H        0.23490000      -2.68390000      -0.77230000
H        1.82110000      -0.09570000      -1.46810000
