18
Properties=species:S:1:pos:R:3 gdb_81643=T pbc="F F F"
C       -0.06750000       1.43100000       0.04370000
C       -0.02020000      -0.06060000      -0.06520000
N       -0.08810000      -0.68910000      -1.17490000
C        0.00050000      -2.14980000      -1.04040000
C        1.14330000      -2.51410000      -0.04980000
C        0.14690000      -2.10400000       1.05780000
O        0.10600000      -0.66530000       1.14600000
C       -0.97920000      -2.58870000       0.09120000
O       -2.25900000      -2.04580000       0.16260000
H        0.85990000       1.80500000       0.48950000
H       -0.19790000       1.86540000      -0.94670000
H       -0.88770000       1.74090000       0.69860000
H       -0.04920000      -2.62240000      -2.02080000
H        1.35530000      -3.58470000      -0.02760000
H        2.06850000      -1.94130000      -0.12550000
H        0.22630000      -2.47220000       2.07940000
H       -1.06320000      -3.67710000       0.14460000
H       -2.23400000      -1.18840000      -0.27970000
