16
Properties=species:S:1:pos:R:3 gdb_45067=T pbc="F F F"
O        0.03800000       0.00710000      -0.26880000
C       -0.02020000       1.17140000      -0.00080000
C       -1.27910000       1.97720000       0.33200000
C       -0.78920000       3.25050000       0.98990000
C        0.11670000       3.09750000       2.18500000
C        0.71950000       3.35260000       0.82840000
C        1.21070000       2.14030000       0.05090000
C        2.40570000       1.49850000       0.58570000
N        3.35320000       1.00570000       1.02670000
H       -1.80350000       2.18660000      -0.60960000
H       -1.95080000       1.36830000       0.94410000
H       -1.40010000       4.14160000       0.91280000
H        0.15040000       3.91090000       2.90020000
H        0.23520000       2.11360000       2.63110000
H        1.19920000       4.30380000       0.63590000
H        1.41340000       2.42230000      -0.99220000
