19
Properties=species:S:1:pos:R:3 gdb_33014=T pbc="F F F"
C        0.45690000       1.44090000      -0.03810000
O        0.57580000       0.04050000      -0.09760000
C        0.11870000      -0.59770000       1.07100000
C        0.32700000      -2.09090000       0.97340000
C       -0.31580000      -2.93650000       1.88110000
C       -0.11490000      -4.31220000       1.83380000
C        0.72940000      -4.86130000       0.87030000
C        1.36810000      -4.02410000      -0.04000000
C        1.17100000      -2.64550000       0.01120000
H        1.04250000       1.86590000       0.79270000
H        0.83730000       1.84150000      -0.98060000
H       -0.59110000       1.75710000       0.08570000
H        0.65670000      -0.20140000       1.95210000
H       -0.95040000      -0.37760000       1.23770000
H       -0.98090000      -2.51440000       2.63000000
H       -0.62190000      -4.95610000       2.54520000
H        0.88420000      -5.93430000       0.82840000
H        2.02430000      -4.44400000      -0.79590000
H        1.66260000      -1.98970000      -0.69630000
