20
Properties=species:S:1:pos:R:3 gdb_40797=T pbc="F F F"
C       -0.14510000       1.40280000      -0.19310000
C        1.26880000       0.98660000       0.12070000
C        0.17930000      -0.05100000       0.05100000
C       -0.31060000      -0.71710000       1.30670000
C       -1.69850000      -1.34190000       1.18330000
C       -2.02680000      -2.10540000       2.47020000
N       -0.93550000      -2.96650000       2.91900000
C        0.22440000      -2.72660000       2.47730000
O        0.65480000      -1.73670000       1.65770000
H       -0.69870000       1.93640000       0.57290000
H       -0.38570000       1.70890000      -1.20470000
H        2.00360000       1.00820000      -0.67570000
H        1.66640000       1.23400000       1.09920000
H        0.18260000      -0.70340000      -0.81790000
H       -0.31400000       0.01660000       2.12690000
H       -2.43770000      -0.56100000       0.97830000
H       -1.70210000      -2.03050000       0.32970000
H       -2.27510000      -1.40570000       3.28020000
H       -2.91490000      -2.73130000       2.32970000
H        1.06380000      -3.36600000       2.74730000
