14
Properties=species:S:1:pos:R:3 gdb_71387=T pbc="F F F"
O       -0.06880000       1.31530000       0.11230000
C        0.02940000      -0.05090000      -0.01400000
C        0.81470000      -0.93270000      -0.97520000
N       -0.07890000      -2.06780000      -0.48880000
C       -1.07400000      -1.03520000       0.02120000
C       -0.21210000      -0.92590000       1.28960000
O       -0.45420000      -0.32910000       2.48900000
C        0.41250000      -2.22080000       0.93220000
O        1.01730000      -3.11200000       1.43210000
H        0.81590000       1.67500000       0.25450000
H        0.61980000      -0.71210000      -2.02850000
H        1.88390000      -1.10270000      -0.80750000
H       -2.14260000      -1.05090000      -0.12820000
H       -0.34460000       0.62550000       2.37290000
