18
Properties=species:S:1:pos:R:3 gdb_97009=T pbc="F F F"
C       -0.28300000       1.43990000      -0.08550000
N       -0.31740000      -0.00920000      -0.22760000
C        0.54230000      -0.57660000      -0.93270000
O        1.59900000      -0.05730000      -1.67260000
C        1.99170000      -1.39130000      -2.12000000
C        3.25440000      -1.89130000      -1.43270000
O        2.85720000      -2.24460000      -0.11490000
C        1.56040000      -2.82290000      -0.21100000
C        0.83520000      -2.01740000      -1.29650000
H        0.50830000       1.92880000      -0.66540000
H       -1.25090000       1.85170000      -0.39120000
H       -0.14870000       1.69130000       0.97230000
H        1.99080000      -1.45710000      -3.20850000
H        3.64460000      -2.76590000      -1.98060000
H        4.03770000      -1.13280000      -1.36480000
H        1.62230000      -3.88270000      -0.50670000
H        1.08560000      -2.75340000       0.76980000
H        0.04000000      -2.55570000      -1.81030000
