13
Properties=species:S:1:pos:R:3 gdb_24833=T pbc="F F F"
N       -0.03610000       1.30410000      -0.57840000
C        0.00630000       0.16680000      -0.00080000
C       -1.23780000      -0.51320000       0.34000000
C       -1.45130000      -1.65800000       0.99590000
O       -0.58180000      -2.45080000       1.69270000
C        0.72080000      -2.14860000       1.90760000
N        1.52600000      -1.38380000       1.30980000
C        1.33630000      -0.55150000       0.20320000
O        2.24800000      -0.33670000      -0.55800000
H        0.91680000       1.57870000      -0.83820000
H       -2.12320000      -0.04150000      -0.07320000
H       -2.44560000      -2.07750000       1.08540000
H        1.06630000      -2.74220000       2.75200000
