23
Properties=species:S:1:pos:R:3 gdb_77391=T pbc="F F F"
C       -0.16790000       1.59140000      -0.02480000
C       -0.03390000       0.07490000      -0.00080000
C        1.18540000      -0.59670000      -0.67700000
C        1.56410000      -0.59460000      -2.13360000
C        2.13030000      -0.29430000       0.54820000
C        2.58210000      -1.76370000       0.65350000
C        1.09200000      -1.84600000       0.27330000
C        0.71530000      -0.60900000       1.16800000
C        0.35090000      -0.62620000       2.62810000
H        0.77870000       2.08560000       0.21950000
H       -0.48180000       1.94590000      -1.01310000
H       -0.91750000       1.93460000       0.69720000
H       -0.99380000      -0.40150000      -0.24850000
H        1.72690000       0.42570000      -2.49910000
H        2.48550000      -1.16090000      -2.30930000
H        0.77450000      -1.04420000      -2.74660000
H        2.72100000       0.61050000       0.70470000
H        3.30460000      -2.11480000      -0.09040000
H        2.86170000      -2.12640000       1.64790000
H        0.46550000      -2.72600000       0.10780000
H        1.07770000      -1.19760000       3.21620000
H        0.31570000       0.38890000       3.03970000
H       -0.63440000      -1.08100000       2.78290000
