18
Properties=species:S:1:pos:R:3 gdb_85627=T pbc="F F F"
C       -0.08070000       1.58970000       0.02060000
C        0.10010000       0.06850000       0.00020000
C        0.89560000      -0.46650000      -1.16580000
C        1.69010000      -1.48300000      -0.80700000
C        1.55190000      -1.79460000       0.67300000
C        0.84900000      -0.52850000       1.22470000
O        1.79290000       0.43700000       1.66060000
C        2.53520000      -2.22790000      -1.67190000
N        3.23480000      -2.85700000      -2.34830000
H        0.88380000       2.09840000       0.05650000
H       -0.61920000       1.91860000      -0.87380000
H       -0.65900000       1.90040000       0.89550000
H       -0.89890000      -0.39380000      -0.03630000
H        0.79950000      -0.08300000      -2.17500000
H        0.94050000      -2.69400000       0.82150000
H        2.51340000      -1.97270000       1.16580000
H        0.15090000      -0.77530000       2.03620000
H        2.26450000       0.07580000       2.41720000
