16
Properties=species:S:1:pos:R:3 gdb_131857=T pbc="F F F"
O        0.07610000       1.31030000      -0.28060000
C       -0.05400000      -0.06700000       0.04780000
C       -1.54250000      -0.35320000       0.16440000
N       -2.19140000      -0.00540000      -1.08910000
C       -3.42420000      -0.42460000      -1.42900000
N       -4.16880000       0.00910000      -2.41960000
C       -5.25840000      -0.80700000      -2.30130000
N       -5.23800000      -1.68120000      -1.33380000
O       -3.97500000      -1.42110000      -0.72360000
H        0.99150000       1.48770000      -0.51410000
H        0.38260000      -0.70520000      -0.73370000
H        0.43570000      -0.30400000       1.00340000
H       -1.70270000      -1.41400000       0.37120000
H       -1.95920000       0.22060000       1.00450000
H       -1.88590000       0.85540000      -1.51790000
H       -6.10990000      -0.74880000      -2.96540000
