18
Properties=species:S:1:pos:R:3 gdb_96421=T pbc="F F F"
O       -0.03970000       1.42380000       0.04870000
C        0.01120000       0.01310000       0.03750000
C        0.77700000      -0.56030000       1.23780000
O        0.77640000      -1.97560000       1.21470000
C       -0.53590000      -2.51050000       1.30510000
C       -1.40960000      -2.05740000       0.13290000
C       -1.43890000      -0.51130000       0.04000000
C       -2.21500000       0.06380000       1.14570000
N       -2.84690000       0.47410000       2.02200000
H        0.86040000       1.76550000       0.04470000
H        0.48210000      -0.36630000      -0.88290000
H        1.82640000      -0.24820000       1.20270000
H        0.33320000      -0.17200000       2.16840000
H       -0.42280000      -3.59770000       1.30420000
H       -1.00240000      -2.21590000       2.25870000
H       -0.99340000      -2.44870000      -0.80130000
H       -2.42460000      -2.45130000       0.23980000
H       -1.92360000      -0.19760000      -0.89080000
