20
Properties=species:S:1:pos:R:3 gdb_22100=T pbc="F F F"
C        0.05010000       1.60100000      -0.05130000
C        0.00750000       0.06060000      -0.04320000
C       -1.45000000      -0.47950000       0.04150000
C       -2.13600000      -0.14480000       1.33940000
C       -1.65490000      -0.76200000       2.62650000
N       -3.12580000       0.66250000       1.26500000
O       -3.69100000       0.90690000       2.52820000
C        0.67900000      -0.48990000      -1.21870000
C        1.21320000      -0.93710000      -2.19870000
H        1.08260000       1.95880000      -0.06630000
H       -0.45990000       1.99290000      -0.93620000
H       -0.44910000       2.00290000       0.83430000
H        0.55020000      -0.29120000       0.84540000
H       -2.03360000      -0.07030000      -0.78720000
H       -1.42000000      -1.56920000      -0.07730000
H       -1.20050000      -0.00550000       3.27620000
H       -2.49980000      -1.17840000       3.18230000
H       -0.92080000      -1.54920000       2.44260000
H       -4.42710000       1.48790000       2.30970000
H        1.69490000      -1.33320000      -3.05800000
