24
Properties=species:S:1:pos:R:3 gdb_22502=T pbc="F F F"
C        0.20280000       1.51310000       0.00890000
C        0.06880000      -0.00910000      -0.08790000
C       -1.38090000      -0.48960000       0.03700000
C       -1.50840000      -2.01110000      -0.05890000
C       -2.90440000      -2.57310000       0.05100000
C       -3.06830000      -4.07500000       0.06100000
C       -3.24510000      -4.63230000       1.48560000
N       -3.86980000      -1.74120000       0.14590000
O       -5.11760000      -2.38880000       0.24960000
H        1.24620000       1.83050000      -0.08380000
H       -0.36900000       2.01080000      -0.78220000
H       -0.17440000       1.88250000       0.96900000
H        0.48650000      -0.35280000      -1.04390000
H        0.67940000      -0.48020000       0.69430000
H       -1.80570000      -0.15040000       0.98900000
H       -1.99600000      -0.02510000      -0.74210000
H       -1.07890000      -2.36350000      -1.00940000
H       -0.89160000      -2.48830000       0.71830000
H       -3.94420000      -4.33850000      -0.53900000
H       -2.19140000      -4.53270000      -0.40930000
H       -3.34530000      -5.72170000       1.46280000
H       -2.38570000      -4.38830000       2.11880000
H       -4.14110000      -4.21290000       1.94820000
H       -5.72470000      -1.64300000       0.28930000
