23
Properties=species:S:1:pos:R:3 gdb_118411=T pbc="F F F"
C       -0.13240000       1.62070000       0.07080000
C       -0.00310000       0.09790000      -0.02980000
C        0.75430000      -0.50510000       1.15980000
C        0.80630000      -2.05040000       1.16920000
C        1.62090000      -2.62910000      -0.01240000
O        1.67360000      -4.03890000       0.00670000
C        1.36500000      -2.55630000       2.42510000
C        1.86420000      -2.98710000       3.43490000
C        2.44270000      -3.49060000       4.67370000
H        0.85210000       2.10030000       0.10270000
H       -0.67510000       2.03180000      -0.78600000
H       -0.67090000       1.91280000       0.97910000
H       -1.00320000      -0.35220000      -0.08660000
H        0.50000000      -0.15820000      -0.96970000
H        1.78010000      -0.11490000       1.18780000
H        0.27980000      -0.17480000       2.09130000
H       -0.21910000      -2.43430000       1.07000000
H        1.14720000      -2.35510000      -0.95910000
H        2.62910000      -2.18240000       0.00270000
H        1.98420000      -4.29040000       0.88550000
H        2.04390000      -4.47880000       4.92840000
H        3.53190000      -3.58150000       4.59890000
H        2.22430000      -2.82000000       5.51210000
