17
Properties=species:S:1:pos:R:3 gdb_7680=T pbc="F F F"
C        0.03830000       1.51570000       0.09220000
C        0.07290000       0.00170000       0.03630000
C       -1.18620000      -0.62070000      -0.54410000
C        1.33490000      -0.77620000      -0.22630000
N        2.53180000      -0.17220000       0.36050000
C        1.96660000      -0.15360000       1.65220000
O        2.37530000       0.27870000       2.69240000
C        0.70580000      -0.84730000       1.15970000
H        0.96160000       1.94310000       0.48930000
H       -0.12500000       1.93060000      -0.90910000
H       -0.78370000       1.85620000       0.73070000
H       -1.36930000      -0.24340000      -1.55630000
H       -1.11090000      -1.71130000      -0.59790000
H       -2.06110000      -0.37420000       0.06670000
H        1.42640000      -1.56870000      -0.95890000
H        3.03030000       0.61570000      -0.03790000
H        0.17230000      -1.65650000       1.63880000
