14
Properties=species:S:1:pos:R:3 gdb_15107=T pbc="F F F"
N       -0.13100000      -0.68000000      -1.13930000
C        0.00900000       0.15780000      -0.35740000
C        0.17380000       1.22430000       0.64010000
C        1.41340000       1.97770000       0.47070000
C        2.44010000       2.59120000       0.33270000
C        3.65130000       3.34450000       0.17310000
C        4.51440000       3.11290000      -1.02560000
N        3.76000000       4.36260000      -0.90080000
H       -0.69810000       1.88860000       0.57820000
H        0.13860000       0.76870000       1.63820000
H        4.13240000       3.64740000       1.09940000
H        5.59080000       3.21340000      -0.92290000
H        4.18460000       2.36490000      -1.74010000
H        2.92600000       4.31950000      -1.48200000
