21
Properties=species:S:1:pos:R:3 gdb_116275=T pbc="F F F"
C       -0.10420000       1.70140000       0.07900000
C       -0.01740000       0.18520000       0.28500000
C       -1.33620000      -0.53700000      -0.00910000
C       -1.79280000      -0.52770000      -1.48100000
C       -2.76740000      -1.71510000      -1.55540000
O       -2.49710000      -2.54890000      -0.42010000
C       -1.37730000      -2.06300000       0.28040000
C       -0.09110000      -2.75710000      -0.15800000
O        0.04780000      -3.31650000      -1.21450000
H        0.84430000       2.18590000       0.32880000
H       -0.34130000       1.95190000      -0.95980000
H       -0.88130000       2.14210000       0.71340000
H        0.77750000      -0.22180000      -0.35340000
H        0.28430000      -0.01880000       1.32060000
H       -2.12600000      -0.08950000       0.60830000
H       -2.26280000       0.41380000      -1.77270000
H       -0.93290000      -0.69410000      -2.13830000
H       -3.81420000      -1.39300000      -1.49400000
H       -2.63850000      -2.29860000      -2.47270000
H       -1.51980000      -2.26560000       1.35070000
H        0.74130000      -2.70180000       0.58250000
