21
Properties=species:S:1:pos:R:3 gdb_112767=T pbc="F F F"
C        0.13880000       1.61620000       0.04000000
C       -0.06250000       0.09870000      -0.02680000
C        0.64550000      -0.53490000      -1.21580000
C        2.19840000      -0.55060000      -1.26700000
C        2.12540000      -1.94550000      -1.93810000
O        3.07460000      -2.92450000      -1.65030000
C        0.65540000      -2.10040000      -1.38140000
C        0.63850000      -2.85090000      -0.14150000
C        0.70400000      -3.49040000       0.87750000
H        1.19990000       1.87240000       0.13030000
H       -0.24480000       2.10940000      -0.86040000
H       -0.38130000       2.04580000       0.90150000
H        0.29930000      -0.36630000       0.89760000
H       -1.13520000      -0.12860000      -0.08280000
H        0.25190000      -0.10970000      -2.14630000
H        2.71430000       0.24790000      -1.80420000
H        2.62180000      -0.63440000      -0.26000000
H        2.09110000      -1.85480000      -3.02750000
H        2.94410000      -3.19400000      -0.73150000
H       -0.07850000      -2.51300000      -2.07970000
H        0.71450000      -4.05360000       1.77790000
