21
Properties=species:S:1:pos:R:3 gdb_54261=T pbc="F F F"
C       -0.02290000       1.36280000       0.79270000
C        0.05160000       0.12510000      -0.07870000
O        1.05400000      -0.17240000      -0.68970000
C       -1.19150000      -0.78310000      -0.13330000
O       -2.33950000      -0.13760000       0.42180000
C       -1.46700000      -1.34380000      -1.55220000
C       -1.93040000      -2.81650000      -1.36410000
C       -2.00650000      -3.03380000       0.16170000
C       -0.96590000      -2.05230000       0.71790000
H        0.96460000       1.82160000       0.85230000
H       -0.73470000       2.08080000       0.37040000
H       -0.39940000       1.11530000       1.78930000
H       -2.71740000       0.43710000      -0.25130000
H       -2.22090000      -0.72990000      -2.05780000
H       -0.55070000      -1.28670000      -2.14240000
H       -2.88290000      -3.02110000      -1.85960000
H       -1.19220000      -3.49370000      -1.80530000
H       -2.99600000      -2.75750000       0.53760000
H       -1.81380000      -4.06910000       0.45610000
H        0.05010000      -2.41880000       0.53760000
H       -1.07840000      -1.84190000       1.78470000
