21
Properties=species:S:1:pos:R:3 gdb_120602=T pbc="F F F"
C       -0.03640000       1.55760000      -0.08020000
C       -0.04920000       0.05270000       0.07800000
C        1.24440000      -0.75510000      -0.02050000
C        0.55280000      -0.65130000       1.29990000
C        1.13540000       0.12200000       2.46300000
C        2.09260000      -0.73020000       3.29240000
O        2.57210000       0.07710000       4.35520000
C       -1.24710000      -0.62780000      -0.47620000
O       -2.17480000      -0.06950000      -1.00820000
H        0.90360000       1.99540000       0.26180000
H       -0.17480000       1.82350000      -1.13200000
H       -0.85580000       2.01800000       0.47980000
H        1.22490000      -1.69900000      -0.55590000
H        2.14700000      -0.17240000      -0.17350000
H        0.00840000      -1.54460000       1.60320000
H        1.67980000       1.00550000       2.11610000
H        0.33530000       0.48290000       3.12010000
H        1.56470000      -1.62070000       3.67200000
H        2.91610000      -1.08820000       2.65390000
H        3.17520000      -0.44980000       4.88720000
H       -1.23350000      -1.73890000      -0.36300000
