20
Properties=species:S:1:pos:R:3 gdb_107786=T pbc="F F F"
C        0.02660000       1.61020000       0.01150000
C        0.07900000       0.08820000       0.04610000
C        1.07430000      -0.70920000      -0.79950000
C        1.19790000      -1.76610000       0.22770000
N        2.37370000      -0.89440000      -0.04990000
C        2.15530000      -0.21450000       1.27000000
C        0.68960000      -0.68440000       1.26340000
C       -0.10210000      -0.91160000       2.51890000
O       -0.32280000       0.35910000       3.12150000
H        1.01880000       2.06220000       0.09070000
H       -0.41540000       1.95630000      -0.92950000
H       -0.58430000       1.98730000       0.83680000
H       -0.92150000      -0.32250000      -0.13830000
H        1.14040000      -0.79430000      -1.87670000
H        1.20970000      -2.84790000       0.19360000
H        2.75790000      -0.73280000       2.02170000
H        2.37370000       0.85700000       1.29940000
H       -1.05520000      -1.40970000       2.27530000
H        0.45420000      -1.58170000       3.19500000
H       -0.82150000       0.22610000       3.93300000
