19
Properties=species:S:1:pos:R:3 gdb_94230=T pbc="F F F"
C       -0.20890000       1.57640000       0.18780000
C        0.00170000       0.07210000       0.08430000
C       -1.26800000      -0.67300000      -0.34780000
C       -1.72700000      -0.28290000      -1.73850000
O       -2.85460000       0.03420000      -2.02110000
O        1.10210000      -0.24880000      -0.81970000
C        1.93630000      -0.70780000       0.26200000
C        0.77470000      -0.56850000       1.27080000
O        0.94950000       0.29100000       2.36800000
H        0.70770000       2.07550000       0.50590000
H       -0.50900000       1.97870000      -0.78470000
H       -0.99310000       1.80770000       0.91460000
H       -1.04500000      -1.74860000      -0.37310000
H       -2.08570000      -0.50330000       0.35930000
H       -0.92680000      -0.32270000      -2.50850000
H        2.32910000      -1.71510000       0.08170000
H        2.76640000      -0.02010000       0.46860000
H        0.34830000      -1.53090000       1.58020000
H        1.35470000      -0.20300000       3.08690000
