19
Properties=species:S:1:pos:R:3 gdb_118593=T pbc="F F F"
C       -0.05840000       1.49540000       0.03610000
C       -0.03210000      -0.01970000       0.09640000
O        0.60620000      -0.47910000      -1.10780000
C        0.73120000      -1.79830000      -1.24770000
N        1.36760000      -2.14020000      -2.45220000
C        1.87700000      -1.34690000      -3.46910000
O        1.88120000      -0.14770000      -3.53600000
N        0.31600000      -2.62980000      -0.38310000
C        0.49030000      -4.05050000      -0.60700000
H        0.95510000       1.90060000      -0.02560000
H       -0.61840000       1.84110000      -0.83690000
H       -0.53760000       1.89180000       0.93630000
H        0.52880000      -0.39070000       0.96010000
H       -1.03720000      -0.44990000       0.15260000
H        1.47140000      -3.13250000      -2.59640000
H        2.30530000      -1.99880000      -4.25880000
H        0.08070000      -4.59970000       0.24430000
H       -0.03760000      -4.41070000      -1.50490000
H        1.54870000      -4.34380000      -0.69890000
