18
Properties=species:S:1:pos:R:3 gdb_55745=T pbc="F F F"
C       -0.04360000       1.44990000      -0.14540000
C       -0.02280000      -0.04070000       0.08630000
O       -0.03880000      -0.58710000       1.15860000
O        0.01730000      -0.70530000      -1.09760000
C        0.04080000      -2.11710000      -1.03390000
C       -1.00280000      -3.10020000      -0.47440000
N        0.07550000      -4.01780000      -1.08020000
C        0.08620000      -3.02650000      -2.26160000
C        1.09050000      -3.06320000      -0.42440000
H        0.84550000       1.75350000      -0.70540000
H       -0.91470000       1.72240000      -0.74800000
H       -0.07590000       1.96660000       0.81290000
H       -1.09570000      -3.18430000       0.60800000
H       -1.96690000      -3.17170000      -0.98350000
H       -0.80380000      -3.09010000      -2.89160000
H        1.00700000      -3.05810000      -2.84840000
H        2.07980000      -3.10010000      -0.88680000
H        1.13460000      -3.14490000       0.66140000
