18
Properties=species:S:1:pos:R:3 gdb_106055=T pbc="F F F"
O        0.10270000       1.23010000      -0.63400000
C       -0.10550000       0.14280000       0.25800000
C       -1.47670000      -0.44520000       0.11030000
C       -2.79610000      -0.00850000       0.65130000
C       -3.45230000      -1.00520000      -0.38690000
C       -3.11130000      -2.09700000       0.63480000
N       -2.09340000      -1.17720000       1.25990000
C       -2.13140000      -0.91230000      -1.19820000
O       -2.09450000       0.08250000      -2.20730000
H       -0.08860000       0.90680000      -1.52270000
H        0.65030000      -0.64570000       0.11140000
H        0.02360000       0.53010000       1.27290000
H       -3.12280000       0.85710000       1.21220000
H       -4.41270000      -0.92270000      -0.89220000
H       -3.89860000      -2.28260000       1.36920000
H       -2.71610000      -3.05090000       0.26490000
H       -1.77580000      -1.83040000      -1.67760000
H       -2.32810000       0.92430000      -1.79380000
