18
Properties=species:S:1:pos:R:3 gdb_72178=T pbc="F F F"
O        0.09950000       1.39010000      -0.05520000
C        0.03130000       0.00550000      -0.05060000
C        0.21080000      -0.82670000      -1.32150000
N       -0.45600000      -1.95120000      -0.54750000
C        0.62130000      -2.19410000       0.47220000
C        0.75340000      -0.78030000       1.08200000
O       -0.13660000      -0.66220000       2.20020000
C       -1.43620000      -0.98850000       1.66690000
C       -1.25800000      -0.84380000       0.16240000
H        0.07880000       1.68860000       0.86200000
H       -0.43160000      -0.49610000      -2.14060000
H        1.21430000      -1.05040000      -1.69400000
H        0.31460000      -2.93280000       1.21560000
H        1.52200000      -2.55670000      -0.02860000
H        1.74060000      -0.43450000       1.38830000
H       -1.74070000      -1.99990000       1.96670000
H       -2.16980000      -0.27830000       2.06310000
H       -2.13940000      -0.57410000      -0.41730000
