16
Properties=species:S:1:pos:R:3 gdb_92669=T pbc="F F F"
C       -0.14630000       1.55610000       0.02240000
C        0.06750000       0.04070000      -0.01830000
C        0.85050000      -0.49760000      -1.23510000
C        1.92480000      -1.36990000      -0.65030000
C        1.93890000      -1.35730000       0.69420000
C        2.84000000      -2.05410000       1.54320000
N        3.56520000      -2.61770000       2.24740000
C        0.85450000      -0.45640000       1.20760000
O        0.64080000      -0.16790000       2.35600000
H        0.80620000       2.08970000      -0.06430000
H       -0.79540000       1.88380000      -0.79450000
H       -0.60610000       1.84060000       0.97200000
H       -0.91020000      -0.45440000       0.03600000
H        0.22550000      -1.06180000      -1.93690000
H        1.30470000       0.31200000      -1.82210000
H        2.61690000      -1.93380000      -1.26580000
