17
Properties=species:S:1:pos:R:3 gdb_95196=T pbc="F F F"
O        0.03600000       1.37370000      -0.05230000
C       -0.01930000      -0.04220000       0.04780000
C       -1.49330000      -0.45140000       0.08180000
C       -2.24860000      -0.05680000      -1.20050000
C       -1.48980000      -0.37750000      -2.47860000
O       -0.52060000       0.57690000      -2.89030000
C       -0.03930000      -0.70090000      -2.45680000
C        0.67410000      -0.73650000      -1.13690000
O        1.71850000      -1.33480000      -1.00530000
H        0.95640000       1.63790000      -0.15240000
H        0.49490000      -0.39670000       0.95240000
H       -1.53760000      -1.53850000       0.22100000
H       -1.96790000       0.00430000       0.95660000
H       -3.21820000      -0.56440000      -1.22160000
H       -2.44700000       1.01920000      -1.19840000
H       -2.06880000      -0.79330000      -3.30350000
H        0.40910000      -1.32270000      -3.22980000
