13
Properties=species:S:1:pos:R:3 gdb_21536=T pbc="F F F"
N        0.04660000       1.44130000       0.16490000
C        0.02840000       0.05350000       0.04640000
C       -1.09580000      -0.77240000       0.01610000
N       -0.60350000      -2.05640000      -0.02550000
N        0.72610000      -2.11030000      -0.03400000
C        1.12340000      -0.83760000       0.01290000
C       -2.46280000      -0.45290000       0.02140000
C       -3.63240000      -0.15700000       0.01670000
H        0.82270000       1.87930000      -0.31210000
H       -0.82560000       1.87390000      -0.10990000
H       -1.14160000      -2.90560000      -0.05520000
H        2.17680000      -0.59940000       0.02250000
H       -4.66300000       0.09820000       0.02430000
