20
Properties=species:S:1:pos:R:3 gdb_59694=T pbc="F F F"
C        0.01900000       1.42280000      -0.15160000
N        0.03550000      -0.02620000       0.01510000
C        0.78100000      -0.38510000       1.21850000
C       -1.29780000      -0.58090000       0.02940000
C       -2.15200000      -0.38460000      -1.25250000
N       -2.13410000      -1.84200000      -1.51320000
C       -1.44290000      -2.12760000      -0.23850000
C       -0.23260000      -2.93710000      -0.40820000
N        0.70090000      -3.60870000      -0.52460000
H        1.04830000       1.78770000      -0.21130000
H       -0.48910000       1.70180000      -1.07750000
H       -0.47850000       1.94640000       0.68740000
H        0.32670000       0.03370000       2.13720000
H        0.84160000      -1.46950000       1.32410000
H        1.80200000      -0.00180000       1.13930000
H       -1.85000000      -0.30120000       0.94550000
H       -3.14010000       0.04720000      -1.05850000
H       -1.66970000       0.18300000      -2.05350000
H       -3.03840000      -2.28670000      -1.60750000
H       -2.06090000      -2.61300000       0.52720000
