16
Properties=species:S:1:pos:R:3 gdb_29429=T pbc="F F F"
O       -0.11440000       1.35740000      -0.48560000
C       -0.00480000       0.03790000      -0.15570000
C        0.25240000      -0.96250000      -1.06610000
N        0.27830000      -2.14760000      -0.36270000
C        0.04290000      -1.91900000       0.96660000
C        0.03780000      -3.04570000       1.95570000
C        1.40960000      -3.70140000       1.93480000
O        1.65570000      -4.72360000       1.34500000
C       -0.13180000      -0.55760000       1.12940000
H       -0.29270000       1.85780000       0.31540000
H        0.40950000      -0.92250000      -2.13010000
H        0.48070000      -3.05140000      -0.75500000
H       -0.16950000      -2.64360000       2.95190000
H       -0.71350000      -3.80570000       1.71320000
H        2.20620000      -3.12660000       2.45680000
H       -0.34280000      -0.05400000       2.06160000
