15
Properties=species:S:1:pos:R:3 gdb_45497=T pbc="F F F"
O        0.01030000       0.00160000      -0.41200000
C        0.03400000       1.14580000      -0.06930000
O       -1.10600000       1.84620000       0.22600000
C       -0.79630000       3.18180000       0.66060000
C       -0.71040000       3.17450000       2.18600000
O        0.54760000       2.54000000       2.45870000
C        1.39780000       2.81640000       1.37840000
C        0.66680000       3.45720000       0.25390000
C        1.21360000       2.05950000       0.05970000
H       -1.53720000       3.86160000       0.24040000
H       -0.72180000       4.19890000       2.58650000
H       -1.50280000       2.58540000       2.65120000
H        2.40790000       3.08450000       1.66580000
H        0.96780000       4.33510000      -0.30110000
H        2.08780000       1.83410000      -0.53630000
