21
Properties=species:S:1:pos:R:3 gdb_32983=T pbc="F F F"
C       -0.03340000       1.58360000      -0.01850000
C        0.00440000       0.05390000      -0.00010000
C        0.73360000      -0.51430000       1.23300000
C        0.77060000      -2.02480000       1.25040000
C       -0.25430000      -2.76130000       1.85260000
C       -0.24180000      -4.15350000       1.83790000
C        0.80200000      -4.83690000       1.21850000
C        1.83110000      -4.11650000       0.61670000
C        1.81310000      -2.72440000       0.63450000
H        0.97790000       2.00570000      -0.02520000
H       -0.55600000       1.95820000      -0.90420000
H       -0.54870000       1.97870000       0.86420000
H       -1.01700000      -0.34570000      -0.02440000
H        0.49640000      -0.31890000      -0.90710000
H        1.75680000      -0.11890000       1.25440000
H        0.23820000      -0.14600000       2.14000000
H       -1.06930000      -2.23570000       2.34280000
H       -1.04570000      -4.70500000       2.31510000
H        0.81560000      -5.92170000       1.20860000
H        2.65240000      -4.63890000       0.13640000
H        2.62250000      -2.16980000       0.16780000
