17
Properties=species:S:1:pos:R:3 gdb_44482=T pbc="F F F"
O        0.03010000       0.04180000      -0.20950000
C       -0.02390000       1.22700000      -0.02970000
C       -1.28630000       2.10480000       0.09860000
C       -0.71150000       3.44950000       0.52840000
C        0.21910000       4.15970000      -0.50730000
C        1.12300000       4.59100000       0.66320000
C        0.69420000       3.20510000       1.20660000
C        1.13830000       2.21820000       0.10820000
O        0.95150000       3.05390000      -1.07360000
H       -1.83610000       2.12570000      -0.84690000
H       -1.95090000       1.67630000       0.85620000
H       -1.37320000       4.12110000       1.07360000
H       -0.12690000       4.81690000      -1.30320000
H        2.17540000       4.77350000       0.43680000
H        0.70020000       5.40350000       1.25770000
H        0.81050000       2.89630000       2.24440000
H        2.13940000       1.79070000       0.13450000
