20
Properties=species:S:1:pos:R:3 gdb_57634=T pbc="F F F"
C        0.17110000       1.42690000       0.34370000
C       -0.08310000      -0.04340000      -0.02980000
N        0.44350000      -0.90370000       1.04600000
C       -1.59750000      -0.35620000      -0.20430000
C       -2.48730000       0.22820000       0.87610000
C       -3.47170000      -0.62950000       1.58560000
N       -2.29460000      -0.11160000       2.29450000
C        0.60030000      -0.33620000      -1.31520000
N        1.14670000      -0.60290000      -2.29910000
H        1.24480000       1.63260000       0.38380000
H       -0.27230000       2.09800000      -0.39590000
H       -0.26560000       1.62910000       1.32370000
H        0.48340000      -1.86880000       0.72890000
H        1.39730000      -0.63530000       1.27270000
H       -1.92630000       0.02100000      -1.17870000
H       -1.70500000      -1.44670000      -0.24180000
H       -2.75030000       1.27310000       0.72300000
H       -4.42310000      -0.21570000       1.90810000
H       -3.50670000      -1.68390000       1.32020000
H       -1.56530000      -0.81720000       2.36640000
