11
Properties=species:S:1:pos:R:3 gdb_25127=T pbc="F F F"
O        0.29500000      -0.04480000      -0.17450000
C        0.10570000       1.12990000      -0.21680000
O       -1.14210000       1.59120000      -0.62430000
C       -1.50510000       2.89970000      -0.79500000
N       -0.79460000       3.88960000      -1.11350000
C        0.58490000       3.72230000      -1.36090000
O        1.10580000       4.00150000      -2.40070000
N        1.33470000       3.29370000      -0.23430000
C        1.11840000       2.14270000       0.25070000
H       -2.57910000       2.99350000      -0.65810000
H        1.73550000       1.77900000       1.07280000
