16
Properties=species:S:1:pos:R:3 gdb_86695=T pbc="F F F"
N        0.26590000       1.17890000      -0.72680000
C        0.00270000      -0.03790000      -0.01750000
C        0.03370000      -0.13700000       1.54940000
N       -1.31240000      -0.70280000       1.49140000
C       -2.11990000      -1.16730000       2.47890000
O       -1.79060000      -1.23370000       3.64220000
C       -1.51430000      -0.48220000       0.05970000
C       -2.47940000       0.57250000      -0.26410000
N       -3.23110000       1.41780000      -0.50110000
H       -0.17470000       1.98160000      -0.28910000
H        1.26040000       1.36050000      -0.79500000
H        0.58930000      -0.83970000      -0.47020000
H        0.78090000      -0.80350000       1.98870000
H        0.07260000       0.83380000       2.05780000
H       -3.10830000      -1.48860000       2.09410000
H       -1.76020000      -1.38030000      -0.51630000
