21
Properties=species:S:1:pos:R:3 gdb_64217=T pbc="F F F"
C        0.01040000       1.57150000       0.01910000
C        0.01610000       0.04670000      -0.01430000
O       -1.27510000      -0.46330000      -0.29740000
C        1.19880000      -0.55050000      -0.83960000
C        1.95800000      -0.81330000       0.48810000
C        0.61610000      -0.64650000       1.24930000
C        0.58570000       0.06120000       2.57520000
C        1.68770000      -0.02730000       3.54240000
O        1.49420000       1.15510000       2.76370000
H        0.98280000       1.97200000       0.31500000
H       -0.23050000       1.96650000      -0.97640000
H       -0.73830000       1.94060000       0.72650000
H       -1.64510000       0.04120000      -1.03000000
H        0.88520000      -1.47840000      -1.32410000
H        1.67690000       0.10000000      -1.57700000
H        2.47140000      -1.77120000       0.58910000
H        2.65370000      -0.00760000       0.73470000
H        0.10920000      -1.61190000       1.35530000
H       -0.41250000       0.25400000       2.97290000
H        1.48600000       0.07650000       4.60750000
H        2.57400000      -0.60840000       3.29200000
