23
Properties=species:S:1:pos:R:3 gdb_114277=T pbc="F F F"
C        0.14880000       1.66380000       0.04260000
C       -0.10920000       0.16000000      -0.10020000
C        0.65070000      -0.47020000      -1.26290000
C        2.19920000      -0.67140000      -0.99510000
C        1.85210000      -2.11070000      -0.70140000
C        1.93240000      -3.08940000       0.19310000
C        0.67210000      -3.94930000       0.10790000
C       -0.36360000      -3.01130000      -0.60190000
C        0.52850000      -2.04500000      -1.40810000
H        1.21110000       1.87450000       0.20540000
H       -0.15980000       2.20460000      -0.85900000
H       -0.40530000       2.08280000       0.88850000
H        0.16340000      -0.35090000       0.83240000
H       -1.18450000      -0.01080000      -0.24030000
H        0.42940000       0.07420000      -2.18680000
H        2.78660000      -0.53540000      -1.90920000
H        2.65990000      -0.08800000      -0.19290000
H        2.70870000      -3.24730000       0.93320000
H        0.83940000      -4.86940000      -0.47050000
H        0.32620000      -4.26920000       1.09720000
H       -1.08050000      -3.56410000      -1.21590000
H       -0.93550000      -2.46910000       0.15840000
H        0.57900000      -2.31720000      -2.46990000
