19
Properties=species:S:1:pos:R:3 gdb_112008=T pbc="F F F"
C       -0.10910000       1.46780000       0.00780000
C        0.11650000      -0.01920000       0.00590000
O       -0.70920000      -0.78990000       0.89350000
C        0.72810000      -0.79040000       1.10410000
C        1.41320000      -1.96730000       0.49410000
C        1.23410000      -1.96500000      -0.82920000
C        0.44000000      -0.76140000      -1.30140000
C       -0.81060000      -1.13780000      -2.09830000
O       -0.38430000      -1.80440000      -3.27890000
H        0.75540000       1.99350000      -0.41110000
H       -0.98560000       1.73220000      -0.59480000
H       -0.28010000       1.82690000       1.02570000
H        1.04730000      -0.34540000       2.04230000
H        1.94250000      -2.71780000       1.06830000
H        1.56010000      -2.73210000      -1.52050000
H        1.06070000      -0.12480000      -1.94770000
H       -1.44870000      -1.77770000      -1.47470000
H       -1.38040000      -0.22680000      -2.34320000
H       -1.16290000      -2.14340000      -3.72960000
