15
Properties=species:S:1:pos:R:3 gdb_57167=T pbc="F F F"
C       -1.26130000       0.91880000      -0.31380000
N       -0.18060000      -0.02020000       0.02500000
C       -0.17920000      -0.47530000       1.38740000
N        0.90700000      -1.20680000       1.77410000
N       -1.17120000      -0.09500000       2.09640000
C        0.70380000      -0.46010000      -0.91860000
O        1.60700000      -1.26730000      -0.77040000
C        0.53480000       0.11460000      -2.26640000
N        0.49640000       0.49680000      -3.35660000
H       -1.13660000       1.25560000      -1.34080000
H       -2.22900000       0.43060000      -0.19430000
H       -1.22470000       1.77010000       0.36550000
H        1.49750000      -1.60570000       1.05660000
H        0.82800000      -1.68640000       2.65460000
H       -1.09310000      -0.44170000       3.05010000
