20
Properties=species:S:1:pos:R:3 gdb_120693=T pbc="F F F"
C        0.12960000       1.01770000      -0.45230000
C       -0.02080000      -0.47930000      -0.27610000
O        0.84760000      -1.26770000      -0.61290000
N       -1.16790000      -0.87240000       0.36270000
C       -2.55170000      -0.51490000       0.20070000
C       -2.09750000      -1.95740000       0.17100000
C       -2.18250000      -2.77890000      -1.10100000
C       -1.25780000      -4.01140000      -1.13890000
O        0.05030000      -3.74770000      -1.56630000
H        1.18500000       1.25550000      -0.58440000
H       -0.41120000       1.33580000      -1.35110000
H       -0.28190000       1.56720000       0.39750000
H       -3.05910000      -0.11630000       1.07630000
H       -2.85550000      -0.07420000      -0.74720000
H       -2.27230000      -2.53500000       1.07940000
H       -3.22330000      -3.12130000      -1.17840000
H       -1.97970000      -2.15630000      -1.98000000
H       -1.28530000      -4.50190000      -0.14760000
H       -1.67380000      -4.73240000      -1.85250000
H        0.40670000      -2.98530000      -1.07730000
