14
Properties=species:S:1:pos:R:3 gdb_2840=T pbc="F F F"
O        0.34930000       0.72120000       0.69740000
C       -0.15290000       0.23740000      -0.53260000
C       -1.50880000      -0.42550000      -0.39060000
C       -1.89730000      -1.55410000      -1.29420000
C       -1.59920000      -1.84300000       0.16980000
C       -0.38890000      -2.51900000       0.54280000
N        0.60170000      -3.02800000       0.86000000
H        0.63060000      -0.04020000       1.21690000
H       -0.24710000       1.10840000      -1.18990000
H        0.55120000      -0.45830000      -1.01250000
H       -2.29960000       0.23490000      -0.04830000
H       -2.92970000      -1.65300000      -1.60820000
H       -1.16790000      -1.89540000      -2.02040000
H       -2.44370000      -2.06700000       0.81190000
