17
Properties=species:S:1:pos:R:3 gdb_51716=T pbc="F F F"
O       -0.17350000      -0.00750000       0.23410000
C       -0.07310000       1.18520000       0.04090000
N        1.09920000       1.85050000      -0.15180000
C        2.38990000       1.17950000      -0.16130000
C        2.96080000       1.03550000      -1.59840000
N        3.72340000       2.26270000      -1.75230000
C        4.12410000       2.83830000      -0.57170000
O        4.85920000       3.79190000      -0.45510000
C        3.46230000       2.02390000       0.54780000
H       -0.94330000       1.86980000       0.01000000
H        1.06370000       2.84040000      -0.34200000
H        2.22340000       0.20420000       0.29390000
H        3.59480000       0.14090000      -1.67770000
H        2.16010000       0.95530000      -2.33790000
H        4.16510000       2.53540000      -2.61640000
H        3.06590000       2.66880000       1.33340000
H        4.23130000       1.38730000       0.99850000
