18
Properties=species:S:1:pos:R:3 gdb_20137=T pbc="F F F"
C        0.13030000       1.58800000       0.01360000
N        1.32340000       0.72920000       0.04970000
C       -0.00830000       0.10850000      -0.05290000
C       -0.46260000      -0.67890000       1.14190000
C       -1.97620000      -0.98270000       1.34790000
C       -1.57900000      -2.45610000       1.37220000
C       -0.88010000      -2.82980000       0.13120000
N       -0.10090000      -2.15250000       1.18730000
H       -0.08070000       2.11020000       0.94320000
H       -0.08500000       2.16240000      -0.88360000
H        1.78290000       0.72730000      -0.85670000
H       -0.29320000      -0.29260000      -1.02390000
H       -0.02340000      -0.22030000       2.03100000
H       -2.35720000      -0.60350000       2.29760000
H       -2.66660000      -0.68760000       0.55100000
H       -1.91890000      -3.18930000       2.09630000
H       -0.58380000      -3.86650000       0.00490000
H       -1.11330000      -2.31680000      -0.79920000
