16
Properties=species:S:1:pos:R:3 gdb_110085=T pbc="F F F"
O       -0.11060000       1.17800000       0.86360000
C       -0.02980000      -0.02840000       0.11840000
C       -1.40580000      -0.55660000      -0.22930000
C       -1.70740000      -2.04470000      -0.22190000
C       -0.64670000      -2.98170000       0.07580000
N        0.20890000      -3.74190000       0.23750000
N       -2.24720000      -1.15030000       0.78390000
C       -1.94200000      -1.20480000       2.14640000
N       -1.90450000      -2.30480000       2.77370000
H       -0.45380000       1.86940000       0.28810000
H        0.55690000       0.09840000      -0.80280000
H        0.50210000      -0.74250000       0.75240000
H       -1.95210000       0.03740000      -0.96330000
H       -2.43560000      -2.43240000      -0.92950000
H       -1.81380000      -0.20230000       2.56620000
H       -1.74490000      -2.14420000       3.76690000
