12
Properties=species:S:1:pos:R:3 gdb_130609=T pbc="F F F"
O       -0.06990000      -0.06790000       0.00490000
C       -0.02160000       1.15090000       0.00950000
C       -1.24820000       1.98260000       0.03110000
N       -1.31820000       3.26530000       0.03810000
O       -0.12070000       3.96840000       0.02430000
C        1.06890000       3.31120000       0.00440000
C        1.17850000       1.96010000      -0.00350000
C        2.16980000       4.20630000      -0.00690000
C        3.10750000       4.95890000      -0.01650000
H       -2.21100000       1.47830000       0.04240000
H        2.15360000       1.49190000      -0.01940000
H        3.93760000       5.62290000      -0.02510000
