19
Properties=species:S:1:pos:R:3 gdb_69355=T pbc="F F F"
C       -0.07110000       1.60990000       0.11580000
C        0.02180000       0.09170000       0.11610000
C        1.05010000      -0.60220000      -0.87080000
C        1.71700000      -1.28540000       0.32610000
O        2.11740000      -2.60820000       0.33360000
C        2.22490000      -0.26960000       1.30310000
C        0.74890000      -0.61360000       1.28790000
C       -1.33430000      -0.55280000      -0.07730000
O       -2.37250000       0.04210000      -0.21300000
H        0.91020000       2.06980000       0.25960000
H       -0.48510000       1.97110000      -0.83000000
H       -0.73460000       1.95590000       0.91340000
H        0.56960000      -1.31980000      -1.54120000
H        1.66710000       0.08140000      -1.46210000
H        3.05030000      -2.64680000       0.09550000
H        2.75470000      -0.69650000       2.14900000
H        2.58870000       0.70430000       0.98550000
H        0.26230000      -1.01210000       2.17030000
H       -1.30520000      -1.66760000      -0.08500000
