14
Properties=species:S:1:pos:R:3 gdb_3396=T pbc="F F F"
C        0.00910000       1.56010000       0.04870000
C        0.08810000       0.05130000       0.07080000
C        1.33290000      -0.73340000      -0.14840000
O        2.48230000      -0.02150000       0.38330000
C        1.95510000      -0.13850000       1.67360000
N        2.46000000       0.15900000       2.78040000
C        0.68560000      -0.77990000       1.22110000
H        0.94370000       2.01050000       0.38870000
H       -0.18680000       1.91650000      -0.96800000
H       -0.79940000       1.91640000       0.69410000
H       -0.78680000      -0.45580000      -0.33430000
H        1.53080000      -1.50150000      -0.88370000
H        3.39370000       0.55680000       2.66510000
H        0.14170000      -1.55730000       1.73700000
