19
Properties=species:S:1:pos:R:3 gdb_72086=T pbc="F F F"
O       -0.08210000       1.37740000       0.05850000
C       -0.00060000      -0.01220000       0.05200000
C        0.99130000      -0.72430000       0.95810000
C        0.52300000      -2.20200000       0.85300000
C       -1.03090000      -2.04550000       0.89840000
C       -1.25140000      -0.83100000       0.01710000
C       -0.33800000      -0.78550000      -1.22860000
C        0.45210000      -1.99460000      -1.54800000
C        0.89320000      -2.72280000      -0.51720000
H        0.70810000       1.72370000      -0.37070000
H        2.03560000      -0.59780000       0.65180000
H        0.87800000      -0.34410000       1.97940000
H        0.90990000      -2.82700000       1.65900000
H       -1.54360000      -2.94660000       0.54880000
H       -1.36570000      -1.83170000       1.92000000
H       -2.22400000      -0.36100000      -0.06010000
H       -0.70570000      -0.17070000      -2.04200000
H        0.63940000      -2.25680000      -2.58430000
H        1.46610000      -3.63570000      -0.63370000
