13
Properties=species:S:1:pos:R:3 gdb_130626=T pbc="F F F"
O       -0.01860000      -0.00070000       0.00420000
C       -0.02650000       1.20260000       0.00970000
C       -1.28880000       2.13370000       0.03290000
C       -0.63910000       3.47110000       0.03070000
C        0.71150000       3.37290000       0.01140000
N        1.09680000       2.02710000      -0.00090000
C        1.15850000       4.71100000       0.01240000
N        0.12900000       5.54150000       0.03100000
O       -1.02580000       4.74720000       0.04300000
H       -1.91040000       1.92260000      -0.84290000
H       -1.88510000       1.91320000       0.92380000
H        2.03200000       1.65720000      -0.01590000
H        2.15600000       5.12400000       0.00080000
