24
Properties=species:S:1:pos:R:3 gdb_113940=T pbc="F F F"
C       -0.11900000       1.51430000      -0.48690000
C       -0.07690000       0.16260000       0.23610000
C       -1.39440000      -0.58310000       0.14040000
C       -1.70290000      -1.47940000      -1.03620000
C       -1.52880000      -2.07500000       0.34240000
C       -0.35550000      -2.96830000       0.68020000
N       -0.70610000      -4.37350000       0.48140000
C       -0.44030000      -4.93260000      -0.83860000
C        0.40640000      -5.30250000       0.32950000
H        0.83730000       2.04040000      -0.40500000
H       -0.34380000       1.38290000      -1.55050000
H       -0.89380000       2.16330000      -0.06390000
H        0.73150000      -0.44630000      -0.18440000
H        0.17980000       0.32220000       1.29190000
H       -2.23700000      -0.00360000       0.51330000
H       -2.69280000      -1.45720000      -1.47870000
H       -0.90270000      -1.64190000      -1.75310000
H       -2.44220000      -2.39750000       0.83490000
H        0.53380000      -2.68360000       0.09000000
H       -0.08660000      -2.84970000       1.73790000
H       -1.18720000      -5.62120000      -1.22340000
H        0.00810000      -4.28300000      -1.58890000
H        1.41790000      -4.89840000       0.35540000
H        0.29050000      -6.26640000       0.81710000
