21
Properties=species:S:1:pos:R:3 gdb_57391=T pbc="F F F"
C       -0.22610000       1.49860000      -0.03440000
C        0.03100000      -0.01380000       0.06520000
C        0.81440000      -0.35400000       1.34230000
O       -1.21630000      -0.72110000       0.07410000
C        0.74830000      -0.50450000      -1.17480000
C        0.03470000      -0.84990000      -2.47000000
C        0.87790000      -1.87990000      -1.78380000
O        2.26020000      -1.69600000      -2.11130000
C        2.24320000      -0.38770000      -1.48140000
H        0.71290000       2.05850000      -0.09750000
H       -0.82390000       1.72110000      -0.92190000
H       -0.76640000       1.85920000       0.84940000
H        0.24490000      -0.04400000       2.22620000
H        0.98870000      -1.43120000       1.40470000
H        1.77910000       0.16090000       1.37920000
H       -1.72890000      -0.39850000       0.82250000
H       -1.03550000      -0.97660000      -2.35610000
H        0.37130000      -0.43900000      -3.41840000
H        0.55270000      -2.86280000      -1.46490000
H        2.56010000       0.40990000      -2.16470000
H        2.88510000      -0.38700000      -0.59340000
