21
Properties=species:S:1:pos:R:3 gdb_63927=T pbc="F F F"
C       -0.95470000       1.38070000       0.02490000
C       -0.14870000       0.09200000      -0.00520000
O       -0.99750000      -1.03610000      -0.19810000
C        1.10600000       0.03760000      -0.93270000
C        1.93220000      -0.61670000       0.21260000
C        3.18620000       0.14710000       0.68270000
C        2.63310000       1.10760000       1.71180000
C        1.34830000       0.88260000       1.99380000
C        0.77410000      -0.26150000       1.20550000
H       -0.31950000       2.24040000       0.25600000
H       -1.42300000       1.56400000      -0.95090000
H       -1.74950000       1.31890000       0.77530000
H       -1.45560000      -0.91750000      -1.03770000
H        0.97260000      -0.55660000      -1.84050000
H        1.48030000       1.02800000      -1.20910000
H        2.10510000      -1.68190000       0.05980000
H        3.93960000      -0.51620000       1.12970000
H        3.68870000       0.66310000      -0.14650000
H        3.24290000       1.87670000       2.17490000
H        0.76740000       1.44360000       2.71870000
H        0.34910000      -1.05250000       1.83080000
