15
Properties=species:S:1:pos:R:3 gdb_43142=T pbc="F F F"
O        0.06060000      -0.01330000       0.11070000
C       -0.03400000       1.17290000       0.10240000
C       -1.09380000       2.25800000      -0.01180000
O       -0.77320000       3.01170000       1.21550000
C        0.70010000       3.11640000       1.27370000
C        0.94910000       2.41550000      -0.04240000
O        1.95800000       2.31530000      -1.02550000
C        0.88200000       2.38930000      -2.03670000
C       -0.12450000       2.97310000      -0.99090000
H       -2.17270000       2.15390000      -0.08490000
H        0.98880000       4.17130000       1.29770000
H        1.06610000       2.60180000       2.16710000
H        1.15630000       3.07440000      -2.84000000
H        0.65470000       1.39730000      -2.43680000
H       -0.25610000       4.05320000      -1.03990000
