25
Properties=species:S:1:pos:R:3 gdb_103465=T pbc="F F F"
C        0.31020000       1.37230000       0.35510000
C       -0.18630000       0.01690000      -0.16850000
C        0.63120000      -0.53990000      -1.33190000
C        0.45540000       0.26320000      -2.61490000
C        2.03220000      -1.09100000      -1.15540000
C        2.20790000      -1.80960000       0.18590000
C        1.02680000      -2.75730000      -0.18920000
C        0.86510000      -2.02780000      -1.53630000
C        0.54700000      -2.79230000      -2.79370000
H        1.35540000       1.30900000       0.67580000
H        0.24540000       2.15690000      -0.40500000
H       -0.28500000       1.69950000       1.21360000
H       -0.20000000      -0.69160000       0.66400000
H       -1.23170000       0.11240000      -0.49240000
H        0.67120000       1.32250000      -2.44320000
H        1.12770000      -0.07410000      -3.40790000
H       -0.57160000       0.19240000      -2.99260000
H        2.84660000      -0.73070000      -1.77590000
H        3.15710000      -2.34530000       0.25900000
H        2.09180000      -1.19870000       1.08710000
H        1.36440000      -3.78740000      -0.33330000
H        0.15820000      -2.77900000       0.47710000
H       -0.46820000      -3.20770000      -2.74580000
H        0.60410000      -2.17740000      -3.69480000
H        1.23520000      -3.63600000      -2.92350000
