21
Properties=species:S:1:pos:R:3 gdb_66322=T pbc="F F F"
C       -0.02860000       1.54180000       0.00040000
C       -0.02570000      -0.00500000      -0.00460000
C        0.68010000      -0.52600000      -1.28500000
C        1.03020000      -2.01220000      -1.17700000
C        2.00480000      -2.25720000      -0.01680000
C        1.61120000      -1.48980000       1.21730000
C        0.70530000      -0.51450000       1.23180000
C       -1.41620000      -0.48040000       0.03620000
C       -2.55720000      -0.86000000       0.06970000
H        0.99920000       1.91780000       0.00920000
H       -0.53680000       1.92900000      -0.88760000
H       -0.54670000       1.92740000       0.88310000
H        0.04050000      -0.33460000      -2.15220000
H        1.59880000       0.05860000      -1.42420000
H        0.10910000      -2.58220000      -1.00830000
H        1.46040000      -2.37120000      -2.11760000
H        2.05910000      -3.32770000       0.21770000
H        3.02660000      -1.97210000      -0.31080000
H        2.10580000      -1.76490000       2.14650000
H        0.44600000      -0.02080000       2.16520000
H       -3.56220000      -1.20100000       0.10410000
