18
Properties=species:S:1:pos:R:3 gdb_39735=T pbc="F F F"
C       -0.24530000       1.34900000      -0.32930000
C        1.17870000       0.94520000       0.03330000
C        0.09890000      -0.08300000      -0.11030000
C       -0.26150000      -1.08020000       1.03980000
C        0.17380000      -2.23490000       0.23100000
N       -1.16400000      -2.29530000       0.78190000
C       -2.05570000      -2.33750000      -0.41170000
C       -1.30880000      -1.50460000      -1.44710000
C       -0.05020000      -1.31660000      -0.99880000
H       -0.83480000       1.85830000       0.42680000
H       -0.43510000       1.68480000      -1.34370000
H        1.93810000       0.99810000      -0.73920000
H        1.53410000       1.18710000       1.03040000
H       -0.08020000      -0.89070000       2.09290000
H        0.93700000      -2.98520000       0.39950000
H       -2.23780000      -3.39650000      -0.63640000
H       -3.02660000      -1.86770000      -0.21540000
H       -1.83970000      -0.75650000      -2.02890000
