16
Properties=species:S:1:pos:R:3 gdb_45298=T pbc="F F F"
O        0.04920000      -0.05840000      -0.12460000
C        0.03440000       1.14680000      -0.01290000
N       -1.12390000       1.93190000       0.12310000
C       -0.81080000       3.33060000      -0.03900000
C       -1.24660000       4.43020000       0.96650000
C       -0.00760000       5.31050000       0.99630000
C        1.08030000       4.68460000       0.50930000
C        0.69690000       3.34420000       0.09980000
C        1.18440000       2.09700000       0.05960000
H       -1.98660000       1.53800000      -0.22060000
H       -1.08180000       3.68170000      -1.04720000
H       -2.15360000       4.96730000       0.67300000
H       -1.42700000       3.99210000       1.95610000
H       -0.01370000       6.31040000       1.41520000
H        2.08900000       5.07660000       0.49820000
H        2.20490000       1.75690000       0.15830000
