21
Properties=species:S:1:pos:R:3 gdb_76575=T pbc="F F F"
C       -0.00990000       1.54240000      -0.27680000
C       -0.00090000       0.05180000      -0.02160000
C        1.30290000      -0.74480000      -0.02870000
O        2.52910000      -0.08170000      -0.15160000
C        0.54120000      -0.52770000       1.25270000
C        1.14500000       0.26410000       2.41450000
C        0.85730000      -0.64250000       3.63720000
C        0.49750000      -1.98490000       2.98490000
O       -0.16520000      -1.63000000       1.77650000
H        0.92330000       2.00680000       0.05220000
H       -0.13030000       1.75610000      -1.34490000
H       -0.83590000       2.03140000       0.25070000
H       -0.85270000      -0.49380000      -0.42030000
H        1.26860000      -1.74930000      -0.44960000
H        2.61640000       0.22830000      -1.05930000
H        2.21410000       0.41760000       2.25310000
H        0.68490000       1.24930000       2.52820000
H        1.70580000      -0.71870000       4.32130000
H        0.00090000      -0.26380000       4.20230000
H        1.40490000      -2.57210000       2.77060000
H       -0.18590000      -2.60170000       3.57370000
