13
Properties=species:S:1:pos:R:3 gdb_132033=T pbc="F F F"
F        0.07190000       0.03320000       0.00260000
C       -0.02990000       1.35360000       0.01110000
C       -1.20930000       2.00930000       0.03080000
F       -2.33890000       1.31130000       0.04250000
C       -1.27650000       3.46890000       0.03950000
N       -2.42470000       4.05230000       0.05850000
C        0.04770000       4.09540000       0.02460000
C        1.19370000       3.38330000       0.00510000
N        1.17390000       2.00970000      -0.00200000
H       -2.29760000       5.06610000       0.06210000
H        0.09990000       5.17780000       0.02960000
H        2.17740000       3.83410000      -0.00600000
H        2.01670000       1.46070000      -0.01620000
