21
Properties=species:S:1:pos:R:3 gdb_56910=T pbc="F F F"
C        0.04700000       1.54350000      -0.17920000
C        0.01200000       0.03390000      -0.02370000
C       -1.22900000      -0.60870000      -0.61710000
C        1.30860000      -0.74070000      -0.10320000
C        0.58120000      -0.61980000       1.21750000
C        1.16950000       0.18390000       2.36500000
O        0.16250000       0.83930000       3.13740000
C        2.02340000      -0.66060000       3.21010000
C        2.68070000      -1.37710000       3.91750000
H        0.98580000       1.97950000       0.17150000
H       -0.06410000       1.81790000      -1.23450000
H       -0.76750000       2.01530000       0.38060000
H       -1.30040000      -0.40430000      -1.69190000
H       -1.22280000      -1.69530000      -0.48480000
H       -2.13800000      -0.21850000      -0.14440000
H        1.31890000      -1.70610000      -0.59790000
H        2.22940000      -0.17650000      -0.21850000
H        0.06350000      -1.51450000       1.55710000
H        1.77830000       1.00070000       1.96310000
H       -0.31680000       0.15830000       3.62240000
H        3.27740000      -1.99640000       4.54060000
