20
Properties=species:S:1:pos:R:3 gdb_100873=T pbc="F F F"
C        0.07080000       1.56210000       0.02580000
C        0.00690000       0.03440000       0.00070000
C       -1.43730000      -0.52010000      -0.02170000
C       -2.14240000      -0.09740000      -1.23540000
N       -2.68910000       0.23330000      -2.19900000
C       -1.46230000      -2.05640000       0.11770000
O       -0.85550000      -2.35980000       1.35790000
C       -2.87390000      -2.64100000       0.07930000
O       -2.71860000      -4.02440000       0.38360000
H        1.10990000       1.90280000       0.04450000
H       -0.40990000       1.99810000      -0.85550000
H       -0.42740000       1.96500000       0.91450000
H        0.54210000      -0.35220000      -0.87440000
H        0.49130000      -0.38660000       0.88490000
H       -1.98120000      -0.10890000       0.83930000
H       -0.88720000      -2.49630000      -0.71400000
H       -1.10330000      -3.27460000       1.54680000
H       -3.49740000      -2.13780000       0.83360000
H       -3.32760000      -2.49310000      -0.90890000
H       -3.58570000      -4.40640000       0.54440000
