21
Properties=species:S:1:pos:R:3 gdb_52548=T pbc="F F F"
C        0.11320000       1.48300000      -0.06980000
C        0.02880000       0.03280000      -0.05140000
C       -0.06180000      -1.17080000      -0.03320000
C       -0.15300000      -2.61860000      -0.01510000
O       -1.22330000      -3.18780000       0.05690000
C        1.18130000      -3.35000000      -0.06690000
C        1.07320000      -4.87650000      -0.18690000
C        0.56130000      -5.29680000      -1.57170000
C        2.42120000      -5.53710000       0.12920000
H        1.12030000       1.82480000      -0.32990000
H       -0.58920000       1.90550000      -0.79630000
H       -0.14020000       1.89590000       0.91290000
H        1.77360000      -2.92600000      -0.88990000
H        1.72380000      -3.06690000       0.84710000
H        0.33870000      -5.20780000       0.55680000
H        0.46490000      -6.38550000      -1.63630000
H       -0.41750000      -4.85870000      -1.77930000
H        1.25710000      -4.97940000      -2.35860000
H        2.77020000      -5.27990000       1.13520000
H        2.34500000      -6.62770000       0.06960000
H        3.19430000      -5.22130000      -0.58200000
