23
Properties=species:S:1:pos:R:3 gdb_64260=T pbc="F F F"
C       -0.20040000       1.59270000       0.07750000
C        0.00630000       0.06870000       0.01520000
C       -1.36920000      -0.61450000      -0.06630000
C        0.84100000      -0.33240000      -1.23610000
O        2.24670000      -0.39190000      -1.00610000
C        2.59610000      -0.86600000       0.28940000
C        1.50120000      -1.78290000       0.89980000
C        0.77400000      -0.44900000       1.25990000
C        2.19360000       0.18700000       1.34900000
H        0.73760000       2.14060000      -0.04300000
H       -0.87670000       1.92000000      -0.71980000
H       -0.64540000       1.89250000       1.03320000
H       -1.87690000      -0.36750000      -1.00570000
H       -1.28340000      -1.70480000      -0.01050000
H       -2.01590000      -0.28560000       0.75450000
H        0.49290000      -1.30880000      -1.60330000
H        0.69560000       0.38610000      -2.04910000
H        3.62940000      -1.21330000       0.22640000
H        1.00570000      -2.51370000       0.25680000
H        1.87860000      -2.29020000       1.79080000
H        0.13800000      -0.42150000       2.14950000
H        2.65760000      -0.01080000       2.31950000
H        2.33390000       1.23510000       1.08120000
