11
Properties=species:S:1:pos:R:3 gdb_23732=T pbc="F F F"
F       -0.00530000      -0.00660000       0.00320000
C       -0.02420000       1.32820000       0.01050000
C       -1.19000000       2.00310000       0.02950000
O       -1.22840000       3.34570000       0.03700000
C       -0.06610000       4.14480000       0.02540000
O       -0.20960000       5.33580000       0.03530000
C        1.18130000       3.40060000       0.00590000
C        1.20520000       2.04660000      -0.00160000
H       -2.16750000       1.53800000       0.04000000
H        2.08440000       3.99660000      -0.00220000
H        2.13700000       1.49090000      -0.01650000
