14
Properties=species:S:1:pos:R:3 gdb_123389=T pbc="F F F"
C        0.03360000      -1.20090000      -0.00610000
C        0.04280000      -0.00090000       0.00170000
C        0.01200000       1.45150000       0.01160000
O        1.34670000       1.95830000      -0.00070000
C        1.43270000       3.30470000       0.00670000
C        0.48430000       4.28410000       0.02440000
O        1.08970000       5.49180000       0.02470000
N        2.46200000       5.31790000       0.00690000
C        2.66100000       4.02450000      -0.00360000
H        0.03210000      -2.26320000      -0.01310000
H       -0.53260000       1.82950000      -0.86700000
H       -0.51190000       1.81780000       0.90760000
H       -0.59220000       4.29310000       0.03750000
H        3.66520000       3.62740000      -0.01830000
