21
Properties=species:S:1:pos:R:3 gdb_40779=T pbc="F F F"
C       -0.23520000       1.38220000      -0.22090000
C        1.17400000       0.99590000       0.16080000
C        0.11270000      -0.06380000       0.01800000
C       -0.39350000      -0.82330000       1.22530000
O       -0.53580000       0.07030000       2.33180000
C       -1.46140000      -0.49280000       3.25660000
C       -2.44310000      -1.29440000       2.41980000
C       -2.96890000      -0.61080000       1.18410000
C       -1.75460000      -1.49900000       1.09200000
H       -0.82320000       1.88570000       0.53620000
H       -0.43070000       1.70130000      -1.23870000
H        1.95190000       1.05020000      -0.59310000
H        1.49540000       1.24300000       1.16600000
H        0.18390000      -0.69490000      -0.86410000
H        0.34540000      -1.60640000       1.47700000
H       -0.94930000      -1.15420000       3.97440000
H       -1.90870000       0.33780000       3.81330000
H       -3.01920000      -2.07820000       2.89730000
H       -3.89190000      -0.99210000       0.76170000
H       -2.83750000       0.46130000       1.08880000
H       -1.81140000      -2.43990000       0.55720000
