19
Properties=species:S:1:pos:R:3 gdb_73209=T pbc="F F F"
C       -0.09350000       1.53260000      -0.00530000
C       -0.01050000       0.02190000       0.02480000
C       -1.24890000      -0.80590000       0.45440000
N       -0.34620000      -1.70340000       1.21060000
C        0.73170000      -0.68440000       1.19370000
C        2.13030000      -1.19930000       0.89010000
N        2.33330000      -1.62840000      -0.48620000
C        1.52760000      -1.22320000      -1.36740000
O        0.43930000      -0.41690000      -1.26810000
H        0.89980000       1.96940000      -0.15010000
H       -0.73190000       1.86260000      -0.83060000
H       -0.50800000       1.91660000       0.93120000
H       -1.93970000      -0.21460000       1.07180000
H       -1.80510000      -1.28770000      -0.35540000
H       -0.66910000      -1.97910000       2.13100000
H        0.74230000      -0.03680000       2.08330000
H        2.86680000      -0.41530000       1.11770000
H        2.36510000      -2.04120000       1.55270000
H        1.65830000      -1.50930000      -2.40980000
