14
Properties=species:S:1:pos:R:3 gdb_26077=T pbc="F F F"
O       -0.04770000       1.43290000       0.00860000
C        0.06010000       0.01220000       0.00120000
C        0.69830000      -0.48100000      -1.22310000
C        1.24590000      -0.83470000      -2.23220000
C        0.77090000      -0.47320000       1.24030000
C        1.22160000       0.26110000       2.28490000
O        1.77650000      -0.59900000       3.19380000
C        1.61890000      -1.81910000       2.63560000
N        1.03270000      -1.81670000       1.48440000
H        0.78500000       1.78340000      -0.32700000
H       -0.97390000      -0.35640000       0.02890000
H        1.72020000      -1.16400000      -3.12370000
H        1.21920000       1.30560000       2.53680000
H        1.99180000      -2.66210000       3.19590000
