17
Properties=species:S:1:pos:R:3 gdb_37141=T pbc="F F F"
C       -0.00310000       1.53710000       0.12140000
O        1.36630000       1.94010000      -0.02000000
C        2.08360000       0.99810000      -0.83000000
C        1.34780000      -0.30790000      -0.66620000
N        1.02660000      -0.66830000       0.71260000
C        0.00350000       0.03930000      -0.05330000
C       -0.68200000      -0.84240000      -1.08570000
N       -0.31010000      -0.31230000      -2.42110000
C        0.64190000      -1.18440000      -1.68930000
H       -0.33100000       1.88300000       1.10580000
H       -0.63950000       1.98670000      -0.65380000
H        2.07340000       1.28590000      -1.89070000
H        3.11470000       0.99300000      -0.46520000
H        0.80880000      -1.65810000       0.79590000
H       -1.56380000      -1.45990000      -0.96060000
H       -0.77890000      -0.88890000      -3.12300000
H        0.98300000      -2.11790000      -2.12170000
