15
Properties=species:S:1:pos:R:3 gdb_62535=T pbc="F F F"
C       -0.08140000       1.52330000      -0.13750000
C       -0.05590000       0.00330000      -0.00980000
N       -1.39320000      -0.51850000       0.07390000
C        0.88690000      -0.70690000      -1.04980000
O        1.84030000      -1.01840000       0.00760000
C        1.02470000      -0.48390000       0.99170000
O        1.21480000      -0.47970000       2.16130000
C        0.36380000      -1.91120000      -1.68140000
N       -0.07210000      -2.86040000      -2.17480000
H        0.92150000       1.93020000      -0.29070000
H       -0.72050000       1.81190000      -0.97620000
H       -0.48430000       1.96480000       0.77920000
H       -1.41160000      -1.50890000       0.29460000
H       -1.92690000      -0.02930000       0.78400000
H        1.33740000      -0.04940000      -1.79640000
