18
Properties=species:S:1:pos:R:3 gdb_98253=T pbc="F F F"
C       -0.10380000       1.54850000      -0.04520000
O        0.20440000       0.15040000      -0.07850000
C        0.51410000      -0.38030000       1.13110000
O        0.55620000       0.25570000       2.14670000
N        0.75200000      -1.76020000       0.99370000
C        0.34740000      -2.42960000      -0.24850000
C        1.49990000      -2.44440000       1.98250000
C        1.64610000      -3.94690000       1.78480000
O        2.00550000      -1.88690000       2.92290000
H        0.75280000       2.12250000       0.31570000
H       -0.34160000       1.82050000      -1.07380000
H       -0.95660000       1.74160000       0.61020000
H        1.14240000      -2.41060000      -1.00230000
H        0.08090000      -3.46470000      -0.04240000
H       -0.52440000      -1.92750000      -0.66070000
H        2.12700000      -4.19590000       0.83430000
H        2.26240000      -4.31210000       2.60520000
H        0.67700000      -4.45550000       1.81200000
