21
Properties=species:S:1:pos:R:3 gdb_121171=T pbc="F F F"
C       -0.18370000       1.45580000       0.11640000
C       -0.19300000      -0.06700000       0.19200000
N        0.88310000      -0.54860000       1.06440000
C        0.91330000      -1.99210000       1.19430000
C        1.90740000      -2.53770000       2.24220000
O        0.80650000      -3.07640000       3.03340000
C       -0.12750000      -2.57210000       2.14120000
N       -1.37670000      -2.60540000       2.16280000
C       -2.05280000      -3.24300000       3.28520000
H        0.75600000       1.82750000      -0.30990000
H       -0.99920000       1.81550000      -0.51780000
H       -0.29720000       1.89200000       1.11280000
H       -1.13750000      -0.42330000       0.61430000
H       -0.12380000      -0.49420000      -0.82620000
H        1.77680000      -0.23550000       0.69330000
H        0.94620000      -2.53340000       0.23290000
H        2.58180000      -3.33300000       1.91610000
H        2.44710000      -1.76560000       2.79590000
H       -1.37510000      -3.63460000       4.05240000
H       -2.73100000      -2.51940000       3.75030000
H       -2.67170000      -4.06560000       2.90990000
