18
Properties=species:S:1:pos:R:3 gdb_75530=T pbc="F F F"
C        0.02470000       1.52940000       0.13500000
C       -0.05030000       0.03120000      -0.02150000
C       -1.20610000      -0.62870000       0.12020000
C       -1.49750000      -2.09040000      -0.05280000
O       -0.47600000      -2.84270000      -0.66990000
C        0.71780000      -2.92800000       0.07250000
C        1.70660000      -1.80500000      -0.22520000
O        2.89240000      -2.01940000      -0.37990000
N        1.21060000      -0.52070000      -0.30920000
H        0.70560000       1.80810000       0.94840000
H        0.40410000       1.99940000      -0.78130000
H       -0.95810000       1.95150000       0.34680000
H       -2.07260000      -0.03020000       0.38550000
H       -1.76700000      -2.54200000       0.92050000
H       -2.37470000      -2.20850000      -0.70090000
H        0.51830000      -2.95250000       1.15620000
H        1.22220000      -3.85660000      -0.20270000
H        1.95090000       0.14290000      -0.49320000
