16
Properties=species:S:1:pos:R:3 gdb_124237=T pbc="F F F"
C       -0.00340000       1.51970000      -0.11360000
C       -0.00130000       0.01510000       0.04830000
O        0.00050000      -0.52850000       1.13510000
C       -0.00070000      -0.79340000      -1.19130000
C        0.00120000      -2.14510000      -1.41850000
C        0.00340000      -3.27430000      -0.43940000
C        0.00060000      -2.21690000      -2.83970000
N       -0.00130000      -1.03450000      -3.40780000
O       -0.00230000      -0.12600000      -2.37090000
H        0.87300000       1.84420000      -0.68400000
H       -0.88250000       1.84190000      -0.68120000
H       -0.00250000       1.98290000       0.87310000
H       -0.87780000      -3.91090000      -0.57630000
H        0.88450000      -3.91020000      -0.57950000
H        0.00500000      -2.89180000       0.58040000
H        0.00160000      -3.09860000      -3.46590000
