21
Properties=species:S:1:pos:R:3 gdb_119246=T pbc="F F F"
C        1.47120000       1.53100000      -0.19170000
C        1.73930000       0.04800000      -0.38260000
O        0.65080000      -0.50120000      -1.12060000
C        0.80750000      -1.83600000      -1.51460000
C        0.75280000      -2.83730000      -0.37210000
C       -0.49080000      -2.62660000       0.47030000
O       -0.48980000      -2.50860000       1.66800000
C        0.15680000      -2.15550000      -2.82880000
C        1.66840000      -2.10770000      -2.72380000
H        1.39590000       2.03730000      -1.15820000
H        0.53310000       1.68290000       0.34930000
H        2.28050000       1.99220000       0.38220000
H        2.68010000      -0.11390000      -0.92980000
H        1.83200000      -0.44970000       0.59330000
H        0.71850000      -3.85320000      -0.78700000
H        1.62820000      -2.77560000       0.28130000
H       -1.43850000      -2.58630000      -0.11280000
H       -0.32590000      -3.11880000      -2.95210000
H       -0.33190000      -1.33070000      -3.33350000
H        2.16580000      -1.25430000      -3.17040000
H        2.22610000      -3.03660000      -2.77340000
