19
Properties=species:S:1:pos:R:3 gdb_124555=T pbc="F F F"
C        0.03330000       1.26130000      -0.35110000
C        0.05570000      -0.19220000       0.16680000
C        0.68630000      -0.26890000       1.56320000
C       -1.32700000      -0.78710000       0.12840000
N       -2.07770000      -0.87810000       1.20100000
O       -3.26900000      -1.45430000       0.79960000
C       -3.21320000      -1.69040000      -0.52960000
C       -2.01040000      -1.29660000      -1.02560000
N       -1.46670000      -1.43260000      -2.31080000
H        1.04910000       1.66580000      -0.40350000
H       -0.40980000       1.33930000      -1.35010000
H       -0.55480000       1.89560000       0.31960000
H        0.66960000      -0.78480000      -0.52570000
H        0.73580000      -1.30140000       1.91820000
H        1.70120000       0.14030000       1.54160000
H        0.09860000       0.30160000       2.28720000
H       -4.08640000      -2.14640000      -0.96830000
H       -2.16160000      -1.65850000      -3.01040000
H       -0.95280000      -0.61300000      -2.60860000
