17
Properties=species:S:1:pos:R:3 gdb_8557=T pbc="F F F"
C       -0.04930000       1.47000000       0.08180000
C        0.05500000      -0.02310000       0.01360000
C        0.88390000      -0.90220000      -0.90540000
N        0.03380000      -2.09140000      -0.48970000
C        0.43950000      -2.25300000       0.96540000
C       -0.23240000      -0.91980000       1.23830000
O       -0.55940000      -0.31850000       2.43470000
C       -1.03410000      -1.07450000      -0.02990000
H        0.90350000       1.91480000       0.39160000
H       -0.31770000       1.89550000      -0.89130000
H       -0.80470000       1.77360000       0.81190000
H        0.71530000      -0.68850000      -1.96520000
H        1.95850000      -1.02320000      -0.72180000
H       -0.10200000      -3.10010000       1.39910000
H        1.51550000      -2.37590000       1.13400000
H       -1.20850000      -0.86930000       2.88630000
H       -2.08240000      -1.08580000      -0.29400000
