19
Properties=species:S:1:pos:R:3 gdb_126560=T pbc="F F F"
C       -0.01110000       1.52890000       0.15720000
C       -0.09030000       0.01110000       0.33500000
C       -1.35450000      -0.59730000      -0.30000000
C       -1.44700000      -2.08390000      -0.13630000
N       -1.26800000      -2.88730000      -1.17930000
N       -1.39320000      -4.14280000      -0.66710000
C       -1.64800000      -4.13520000       0.65810000
O       -1.80320000      -5.31670000       1.29520000
C       -1.69220000      -2.81650000       1.05730000
H        0.89520000       1.93770000       0.61510000
H       -0.00090000       1.80270000      -0.90370000
H       -0.87140000       2.02830000       0.61740000
H        0.79170000      -0.46440000      -0.11040000
H       -0.06470000      -0.23890000       1.40310000
H       -2.24030000      -0.12030000       0.14030000
H       -1.37130000      -0.37320000      -1.37180000
H       -1.31300000      -4.94660000      -1.26550000
H       -1.97240000      -5.14320000       2.22610000
H       -1.87550000      -2.43920000       2.05060000
