21
Properties=species:S:1:pos:R:3 gdb_93795=T pbc="F F F"
C       -0.07930000       1.55500000       0.02360000
C        0.07530000       0.03590000      -0.02570000
C        0.79500000      -0.44390000      -1.28510000
C        1.02670000      -1.95010000      -1.21540000
N        1.66230000      -2.33670000       0.03430000
C        2.23060000      -3.66880000       0.09250000
C        1.49490000      -1.64080000       1.21660000
O        1.91900000      -2.04000000       2.29110000
N        0.85460000      -0.42070000       1.11490000
H        0.89960000       2.04300000      -0.01540000
H       -0.68180000       1.90690000      -0.81920000
H       -0.58060000       1.86940000       0.94550000
H       -0.93340000      -0.41340000      -0.01360000
H        0.20480000      -0.20250000      -2.17430000
H        1.75650000       0.07590000      -1.36520000
H        0.07090000      -2.48560000      -1.34670000
H        1.67480000      -2.26760000      -2.04160000
H        3.02470000      -3.77850000      -0.65630000
H        2.64300000      -3.81940000       1.08860000
H        1.47090000      -4.44000000      -0.10170000
H        0.65310000      -0.02800000       2.02140000
