15
Properties=species:S:1:pos:R:3 gdb_29408=T pbc="F F F"
C       -0.07400000       1.45940000       0.04400000
C        0.03030000      -0.02500000      -0.02200000
C        0.06540000      -0.84150000      -1.09850000
O        0.17520000      -2.14670000      -0.64410000
C        0.18770000      -2.00770000       0.69720000
O        0.32500000      -3.10290000       1.45360000
C       -0.00820000      -4.33110000       0.93630000
N        0.27130000      -5.34920000       1.61510000
N        0.10740000      -0.80270000       1.14070000
H        0.79300000       1.88580000       0.55910000
H       -0.13130000       1.89440000      -0.95680000
H       -0.96410000       1.76070000       0.60580000
H        0.02810000      -0.71240000      -2.16550000
H       -0.50400000      -4.27270000      -0.03390000
H       -0.04870000      -6.18780000       1.13450000
