20
Properties=species:S:1:pos:R:3 gdb_78389=T pbc="F F F"
C       -0.07420000       1.59360000      -0.01270000
C        0.03170000       0.07620000      -0.07400000
C       -1.18040000      -0.59160000       0.57090000
C        0.66040000      -0.83340000      -1.08290000
C        2.01090000      -0.54200000      -1.76600000
C        2.61860000       0.77310000      -1.51680000
O        1.99460000       1.98260000      -1.81390000
C        2.52110000      -0.21140000      -0.34890000
N        1.24220000      -0.69210000       0.30500000
H        0.86720000       2.05250000       0.28270000
H       -0.37540000       2.02800000      -0.96620000
H       -0.82070000       1.86230000       0.74110000
H       -2.09610000      -0.30300000       0.04320000
H       -1.09470000      -1.68060000       0.55690000
H       -1.27220000      -0.27310000       1.61410000
H        0.14840000      -1.75460000      -1.35050000
H        2.39940000      -1.25080000      -2.48800000
H        3.66930000       0.76300000      -1.82450000
H        2.42690000       2.67780000      -1.30580000
H        3.43040000      -0.52520000       0.15190000
