18
Properties=species:S:1:pos:R:3 gdb_36282=T pbc="F F F"
C        0.10880000      -1.13130000       0.27710000
C        0.04700000       0.06430000       0.38010000
C       -0.03770000       1.51930000       0.47510000
N        1.27380000       2.13500000       0.23270000
C        1.76380000       2.13380000      -1.21680000
C        0.83310000       3.35640000      -1.50750000
C        1.25540000       3.64230000      -0.02920000
C        2.76370000       3.85890000      -0.20220000
C        3.10480000       2.84500000      -1.00100000
H        0.16480000      -2.18890000       0.20020000
H       -0.85210000       1.86230000      -0.18680000
H       -0.33560000       1.79950000       1.49420000
H        1.72630000       1.19480000      -1.76660000
H        1.14630000       4.06750000      -2.27510000
H       -0.22130000       3.10170000      -1.63730000
H        0.69080000       4.27740000       0.65370000
H        3.36060000       4.63580000       0.25190000
H        4.06470000       2.54570000      -1.39450000
