18
Properties=species:S:1:pos:R:3 gdb_123911=T pbc="F F F"
C       -0.02660000       1.48910000       0.01210000
C        1.39290000       2.07360000      -0.00250000
N        2.21420000       1.58980000       1.10900000
C        1.95540000       0.30800000       1.58330000
C        2.55840000      -0.45550000       2.57090000
C        1.85340000      -1.67610000       2.53640000
N        0.89920000      -1.69340000       1.61220000
N        0.97130000      -0.45910000       1.04350000
C        0.04810000      -0.04050000       0.00860000
H       -0.55980000       1.83130000       0.90630000
H       -0.58480000       1.83320000      -0.86360000
H        1.87880000       1.80400000      -0.95110000
H        1.36710000       3.16520000       0.04110000
H        2.36920000       2.26380000       1.84300000
H        3.38390000      -0.16970000       3.20150000
H        2.01250000      -2.55100000       3.15070000
H       -0.92080000      -0.49920000       0.21750000
H        0.38510000      -0.40590000      -0.97080000
