23
Properties=species:S:1:pos:R:3 gdb_120085=T pbc="F F F"
C       -0.69360000       1.55940000       0.19640000
C       -0.48490000       0.05040000       0.33870000
C        0.81100000      -0.31260000       1.07900000
C        0.98490000      -1.83040000       1.20170000
C        2.20020000      -2.71050000       1.02610000
C        3.50310000      -2.28900000       1.76170000
C        3.41900000      -1.02020000       2.56710000
C        2.75460000      -2.26810000       3.08370000
C        1.44780000      -2.68940000       2.35510000
H        0.12890000       2.02250000      -0.36040000
H       -1.62360000       1.78640000      -0.33430000
H       -0.74220000       2.04700000       1.17660000
H       -1.33770000      -0.39150000       0.87100000
H       -0.47250000      -0.41590000      -0.65540000
H        1.65710000       0.12970000       0.54010000
H        0.78950000       0.15400000       2.07080000
H        0.14250000      -2.34300000       0.73300000
H        2.21550000      -3.50260000       0.28700000
H        4.45250000      -2.75970000       1.54120000
H        4.34420000      -0.78380000       3.08720000
H        2.87560000      -0.14450000       2.24570000
H        3.04780000      -2.72050000       4.02230000
H        0.81110000      -3.46320000       2.76730000
