21
Properties=species:S:1:pos:R:3 gdb_63668=T pbc="F F F"
C       -0.02360000       1.52880000      -0.35530000
C       -0.00600000       0.03860000      -0.06590000
C       -1.25310000      -0.69500000      -0.52000000
C        1.30180000      -0.68380000      -0.05430000
N        0.55610000      -0.48000000       1.18980000
C        1.11570000       0.42050000       2.18290000
C        1.87990000      -0.42160000       3.22390000
C        2.45910000       0.39800000       4.28410000
N        2.90880000       1.06540000       5.11350000
H        0.90660000       2.02760000      -0.07560000
H       -0.17760000       1.69670000      -1.42640000
H       -0.84830000       2.02050000       0.17360000
H       -1.38050000      -0.61240000      -1.60510000
H       -1.19650000      -1.75270000      -0.25310000
H       -2.14610000      -0.27320000      -0.04480000
H        1.37530000      -1.71050000      -0.40460000
H        2.20180000      -0.08810000      -0.20780000
H        1.79760000       1.18010000       1.77140000
H        0.29780000       0.95160000       2.68130000
H        1.20090000      -1.16010000       3.66130000
H        2.68220000      -0.98040000       2.72900000
