18
Properties=species:S:1:pos:R:3 gdb_6613=T pbc="F F F"
C       -0.20500000       1.54390000      -0.03880000
C       -0.02120000       0.03120000      -0.01440000
O       -1.25170000      -0.64720000      -0.17530000
C        1.16420000      -0.47020000      -0.91570000
C        1.98750000      -0.64020000       0.36220000
C        3.27370000      -1.28550000       0.60890000
O        3.15090000       0.14530000       0.59840000
C        0.74140000      -0.49350000       1.23700000
H        0.74380000       2.05990000       0.13690000
H       -0.58490000       1.87280000      -1.01460000
H       -0.91840000       1.85230000       0.73170000
H       -1.70070000      -0.27660000      -0.94300000
H        0.91620000      -1.42420000      -1.38900000
H        1.56730000       0.22380000      -1.65760000
H        3.48170000      -1.72820000       1.58270000
H        3.83620000      -1.71110000      -0.22180000
H        0.82540000       0.18110000       2.09210000
H        0.33400000      -1.45500000       1.56010000
