21
Properties=species:S:1:pos:R:3 gdb_36945=T pbc="F F F"
C       -0.44460000       1.18810000      -0.00560000
C        0.99630000       1.06460000       0.45330000
C        0.24030000      -0.15720000       0.05010000
O       -0.05490000      -1.07150000       1.06050000
C       -1.07510000      -2.00510000       0.72640000
C       -1.00090000      -3.20460000       1.69420000
C       -2.22330000      -3.00220000       2.59820000
O       -3.19790000      -2.41090000       1.75000000
C       -2.51130000      -1.45200000       0.96200000
H       -1.18260000       1.40740000       0.75670000
H       -0.65050000       1.62470000      -0.97710000
H        1.78990000       1.42220000      -0.19270000
H        1.18450000       1.18350000       1.51420000
H        0.49650000      -0.62500000      -0.90200000
H       -0.93780000      -2.32340000      -0.31490000
H       -1.09270000      -4.14340000       1.14200000
H       -0.04890000      -3.20440000       2.22800000
H       -2.64320000      -3.92760000       2.99960000
H       -1.98090000      -2.33330000       3.44030000
H       -2.42460000      -0.49370000       1.49560000
H       -3.08670000      -1.29720000       0.04570000
