13
Properties=species:S:1:pos:R:3 gdb_2598=T pbc="F F F"
O        0.15310000       1.30020000       0.32010000
C        0.02320000       0.00990000      -0.23480000
C       -1.40360000      -0.50390000      -0.13360000
C       -1.65060000      -1.90450000       0.26480000
O       -1.77090000      -0.85860000       1.22240000
C       -2.40550000       0.21550000      -0.88150000
C       -3.21590000       0.81690000      -1.53350000
H       -0.15310000       1.24630000       1.23290000
H        0.32050000       0.08940000      -1.28480000
H        0.68540000      -0.71750000       0.25880000
H       -2.58410000      -2.37750000      -0.03260000
H       -0.80260000      -2.57490000       0.39980000
H       -3.93640000       1.35430000      -2.09940000
