12
Properties=species:S:1:pos:R:3 gdb_3413=T pbc="F F F"
O        0.03740000      -0.00750000      -0.05890000
C       -0.00540000       1.19750000      -0.00370000
C       -1.21780000       2.06460000       0.08170000
C       -0.87340000       3.35750000       0.01260000
C        0.61500000       3.51790000      -0.06180000
N        1.27210000       2.99840000       1.16990000
C        1.18000000       2.15240000      -0.05680000
H       -2.21280000       1.65630000       0.20050000
H       -1.55310000       4.20030000       0.05800000
H        1.06840000       4.34240000      -0.59920000
H        2.22320000       3.36660000       1.21510000
H        2.08340000       1.86290000      -0.57920000
