22
Properties=species:S:1:pos:R:3 gdb_63058=T pbc="F F F"
C       -0.16110000       1.60650000       0.02030000
C       -0.00450000       0.08780000       0.00240000
C       -1.37410000      -0.57890000      -0.17980000
C        1.09230000      -0.59350000      -0.88170000
C        2.37790000       0.17940000      -0.53820000
C        2.37140000      -0.27330000       0.94140000
C        2.51050000      -1.78970000       0.72310000
N        1.12390000      -1.76000000       0.14810000
C        0.82450000      -0.59790000       1.09870000
H        0.74320000       2.13390000       0.33150000
H       -0.44980000       1.98320000      -0.96810000
H       -0.95630000       1.88950000       0.71900000
H       -1.84030000      -0.23750000      -1.11140000
H       -1.28560000      -1.66570000      -0.21490000
H       -2.04870000      -0.31090000       0.64150000
H        0.89840000      -0.87290000      -1.91780000
H        3.26340000      -0.17970000      -1.07040000
H        2.29650000       1.25360000      -0.70500000
H        2.95580000       0.29110000       1.66960000
H        3.30740000      -2.15670000       0.06730000
H        2.48270000      -2.38470000       1.64080000
H        0.44460000      -0.83740000       2.09470000
