17
Properties=species:S:1:pos:R:3 gdb_19410=T pbc="F F F"
O        0.14430000       1.37840000      -0.04560000
C        0.02680000      -0.01530000      -0.03250000
C        0.31420000      -0.72810000       1.30410000
N       -0.67930000      -0.15680000       2.25010000
C       -1.06850000      -1.27900000       1.34760000
C       -1.40490000      -0.63390000       0.02360000
C       -2.67900000       0.00790000      -0.42190000
C       -2.15670000      -1.22490000      -1.12870000
H       -0.28000000       1.67520000       0.77170000
H        0.61880000      -0.40270000      -0.86600000
H        1.24970000      -1.14110000       1.66010000
H       -0.48030000      -0.55140000       3.16870000
H       -1.42250000      -2.22040000       1.74940000
H       -3.55800000      -0.09110000       0.20650000
H       -2.59140000       0.96230000      -0.93120000
H       -1.73700000      -1.11100000      -2.12360000
H       -2.68200000      -2.16240000      -0.97330000
