14
Properties=species:S:1:pos:R:3 gdb_131577=T pbc="F F F"
O        0.30140000       0.74720000       0.94750000
C       -0.08280000       0.17870000      -0.29780000
C       -1.42590000      -0.37430000      -0.19200000
C       -2.53820000      -0.83430000      -0.13600000
C       -3.82890000      -1.40130000      -0.04020000
N       -4.89920000      -0.91110000      -0.69190000
N       -5.87080000      -1.72700000      -0.32360000
N       -5.55380000      -2.71070000       0.51040000
C       -4.25230000      -2.52500000       0.70640000
H        1.18910000       1.10370000       0.83790000
H       -0.07420000       0.93070000      -1.10350000
H        0.61040000      -0.62270000      -0.60250000
H       -6.81230000      -1.60660000      -0.66180000
H       -3.68020000      -3.17190000       1.35090000
