15
Properties=species:S:1:pos:R:3 gdb_78152=T pbc="F F F"
C       -0.03550000       1.49300000       0.01180000
C        0.03630000      -0.00680000      -0.08020000
C        0.73040000      -0.69080000      -1.20700000
N        1.38270000      -0.61730000       0.11710000
C        1.27650000      -1.92790000       0.66560000
O        1.62880000      -2.28850000       1.73940000
O        0.69070000      -2.79370000      -0.25550000
C        0.40950000      -2.12350000      -1.43640000
N        0.00290000      -2.65390000      -2.49900000
H        0.83790000       1.95310000      -0.45630000
H       -0.93800000       1.85850000      -0.48810000
H       -0.07080000       1.80910000       1.05840000
H       -0.79370000      -0.54780000       0.37030000
H        1.16090000      -0.11970000      -2.02060000
H       -0.10660000      -3.66350000      -2.39520000
