23
Properties=species:S:1:pos:R:3 gdb_72482=T pbc="F F F"
C       -0.11790000       1.48520000       0.00700000
C        0.03670000      -0.02680000      -0.01170000
C        0.86370000      -0.57160000      -1.20790000
C        1.48120000      -1.91160000      -0.71070000
C        0.93810000      -2.08760000       0.73280000
C        0.78010000      -0.62870000       1.19590000
C       -0.46090000      -2.73150000       0.74140000
C       -1.40840000      -1.95160000      -0.18020000
O       -1.30580000      -0.54460000      -0.02250000
H        0.85810000       1.97310000       0.08710000
H       -0.60820000       1.83310000      -0.90730000
H       -0.73350000       1.79290000       0.85730000
H        0.23040000      -0.68730000      -2.09160000
H        1.64520000       0.14800000      -1.46820000
H        1.22350000      -2.75890000      -1.35390000
H        2.57350000      -1.84850000      -0.69270000
H        1.62210000      -2.66730000       1.35900000
H        1.75540000      -0.14440000       1.32550000
H        0.20940000      -0.51770000       2.12240000
H       -0.41840000      -3.77580000       0.40930000
H       -0.85010000      -2.73110000       1.76660000
H       -1.21350000      -2.23190000      -1.22770000
H       -2.45410000      -2.19970000       0.02590000
