19
Properties=species:S:1:pos:R:3 gdb_12092=T pbc="F F F"
C       -0.33140000       1.49370000      -0.00640000
C        0.08250000       0.04210000       0.03770000
N        1.51570000      -0.28390000      -0.11680000
C        0.83580000      -0.59820000       1.15370000
C        1.38800000       0.13620000       2.34710000
O        2.07490000       1.30970000       2.02180000
C        0.63210000       0.16130000       3.63870000
C        1.89890000      -0.66790000       3.52280000
H       -0.35910000       1.85310000      -1.04090000
H       -1.33560000       1.61060000       0.41560000
H        0.35680000       2.11490000       0.56700000
H       -0.60360000      -0.62930000      -0.47920000
H        1.65720000      -1.11230000      -0.68590000
H        0.59750000      -1.64130000       1.35370000
H        2.48800000       1.12330000       1.16380000
H        0.68750000       1.08040000       4.21090000
H       -0.32290000      -0.35090000       3.69370000
H        1.81140000      -1.74980000       3.50470000
H        2.78700000      -0.28670000       4.01310000
