25
Properties=species:S:1:pos:R:3 gdb_58582=T pbc="F F F"
C        0.84150000      -0.61220000      -1.18230000
C       -0.01070000      -0.01750000      -0.05070000
C        0.09190000       1.51680000      -0.06130000
C       -1.47370000      -0.53290000      -0.05510000
C       -2.23650000      -0.19210000      -1.34850000
C       -1.55450000      -2.06750000       0.21470000
C       -2.72470000      -2.22830000       1.21720000
O       -3.31510000      -0.94230000       1.36600000
C       -2.27990000       0.00010000       1.15310000
H        1.89040000      -0.32080000      -1.06410000
H        0.80040000      -1.70560000      -1.19470000
H        0.51320000      -0.25380000      -2.16370000
H        0.42380000      -0.36160000       0.89960000
H       -0.29850000       1.94260000      -0.99160000
H       -0.45390000       1.97190000       0.77090000
H        1.13830000       1.82820000       0.02300000
H       -1.80840000      -0.69920000      -2.21840000
H       -3.27940000      -0.50980000      -1.25610000
H       -2.23620000       0.88360000      -1.55100000
H       -1.72710000      -2.62780000      -0.70750000
H       -0.62210000      -2.43830000       0.65020000
H       -3.50470000      -2.91430000       0.87530000
H       -2.35700000      -2.59150000       2.18940000
H       -1.63210000       0.08010000       2.04450000
H       -2.74890000       0.97190000       0.97820000
