19
Properties=species:S:1:pos:R:3 gdb_15577=T pbc="F F F"
C       -0.31200000       1.52290000      -0.00970000
C        0.01260000       0.03260000       0.03050000
C        0.87410000      -0.47820000      -1.14270000
C        1.52390000      -1.80190000      -0.65550000
C        1.22690000      -1.89140000       0.86540000
C        0.79650000      -0.46120000       1.28020000
C        1.95840000       0.38450000       1.56650000
N        2.88000000       1.04880000       1.78310000
H        0.60160000       2.12530000       0.01550000
H       -0.85550000       1.77230000      -0.92650000
H       -0.93650000       1.82210000       0.83860000
H       -0.92790000      -0.53430000       0.04300000
H        0.28000000      -0.60680000      -2.05140000
H        1.64760000       0.26330000      -1.37070000
H        1.11900000      -2.67240000      -1.17810000
H        2.60040000      -1.79570000      -0.84270000
H        0.38280000      -2.56180000       1.05460000
H        2.07280000      -2.26000000       1.44880000
H        0.16580000      -0.46780000       2.17510000
