17
Properties=species:S:1:pos:R:3 gdb_119560=T pbc="F F F"
O       -0.06580000       1.45950000      -0.17240000
C        0.00470000       0.04490000      -0.10630000
C       -1.41640000      -0.46310000       0.14100000
C       -1.46770000      -1.95060000       0.24580000
O       -1.37800000      -2.75450000      -0.96310000
C       -2.48170000      -2.98570000      -0.09430000
C       -1.98420000      -3.98080000       0.96250000
C       -0.93380000      -2.88800000       1.33470000
O       -0.14250000      -2.76150000       2.22090000
H        0.82490000       1.79920000      -0.29760000
H        0.38860000      -0.38640000      -1.04320000
H        0.65880000      -0.29240000       0.71130000
H       -1.79000000      -0.01900000       1.07070000
H       -2.06840000      -0.12860000      -0.67240000
H       -3.48160000      -2.83840000      -0.48390000
H       -2.66630000      -4.15560000       1.80030000
H       -1.61140000      -4.93090000       0.57580000
