13
Properties=species:S:1:pos:R:3 gdb_21494=T pbc="F F F"
N       -0.11460000       1.36000000       0.05180000
C        0.03600000       0.00150000      -0.16660000
O        1.10290000      -0.50590000      -0.44580000
C       -1.21510000      -0.78230000      -0.08270000
C       -1.39520000      -2.13990000       0.10560000
C       -2.79060000      -2.31910000       0.10820000
N       -3.44070000      -1.16940000      -0.07840000
N       -2.46880000      -0.24990000      -0.17270000
H        0.75830000       1.86550000       0.10850000
H       -0.82460000       1.66520000       0.70030000
H       -0.61470000      -2.87090000       0.23360000
H       -3.35150000      -3.23320000       0.23450000
H       -2.71270000       0.69070000      -0.43670000
