16
Properties=species:S:1:pos:R:3 gdb_85029=T pbc="F F F"
C       -0.07810000       1.52990000       0.01080000
C        0.05100000       0.01500000      -0.02530000
O        0.90460000      -0.41160000      -1.10470000
C        1.93900000      -1.14780000      -0.62630000
O        2.80310000      -1.63120000      -1.29630000
N        1.81840000      -1.23650000       0.76220000
C        2.77070000      -1.94720000       1.59510000
C        0.70940000      -0.56170000       1.22600000
O        0.34980000      -0.44740000       2.37140000
H        0.90470000       1.99870000       0.11210000
H       -0.54800000       1.89350000      -0.90570000
H       -0.69320000       1.81580000       0.86780000
H       -0.92890000      -0.45520000      -0.16490000
H        2.79190000      -3.00720000       1.33070000
H        3.77300000      -1.53290000       1.46410000
H        2.44720000      -1.82680000       2.62980000
