17
Properties=species:S:1:pos:R:3 gdb_98111=T pbc="F F F"
C        0.03360000       1.43450000       0.16140000
N       -0.07450000      -0.00570000       0.16920000
C       -1.26610000      -0.64150000       0.09490000
N       -2.37670000       0.00130000       0.01310000
C       -1.09540000      -2.16190000       0.12190000
O        0.00500000      -2.65140000       0.20110000
C       -2.37460000      -3.00170000       0.04420000
C       -2.14190000      -4.43440000       0.07450000
C       -1.96440000      -5.62100000       0.09850000
H        1.08680000       1.71250000       0.22980000
H       -0.39150000       1.85630000      -0.75660000
H       -0.51080000       1.87470000       1.00460000
H        0.74030000      -0.59360000       0.22980000
H       -3.17240000      -0.62810000      -0.03430000
H       -3.02810000      -2.69720000       0.87320000
H       -2.91060000      -2.71500000      -0.87090000
H       -1.80040000      -6.66990000       0.12020000
