22
Properties=species:S:1:pos:R:3 gdb_32639=T pbc="F F F"
C       -0.03970000       1.50960000       0.13920000
C       -0.08140000      -0.01340000      -0.01920000
N        0.63960000      -0.49090000      -1.18600000
C        0.11240000      -0.64740000      -2.44380000
C        1.12580000      -1.01970000      -3.29540000
C        2.32960000      -1.09230000      -2.53160000
C        3.69940000      -1.45590000      -3.02970000
C        4.31540000      -0.39430000      -3.95700000
C        1.98820000      -0.75520000      -1.23960000
H        0.99100000       1.86160000       0.23890000
H       -0.48380000       2.00220000      -0.73050000
H       -0.59630000       1.81510000       1.03100000
H        0.34630000      -0.49820000       0.86470000
H       -1.11740000      -0.35770000      -0.10030000
H       -0.94050000      -0.48880000      -2.61900000
H        1.01750000      -1.23970000      -4.34730000
H        4.36450000      -1.61650000      -2.17280000
H        3.65930000      -2.41360000      -3.56530000
H        4.41630000       0.56430000      -3.43810000
H        5.30730000      -0.70120000      -4.30560000
H        3.68540000      -0.22750000      -4.83660000
H        2.59520000      -0.69120000      -0.34900000
