17
Properties=species:S:1:pos:R:3 gdb_11871=T pbc="F F F"
N       -0.23860000       1.05200000       0.78370000
C       -0.09280000      -0.05720000       0.20060000
C       -1.10830000      -0.72910000      -0.70190000
C       -0.61520000      -2.16490000      -0.74070000
C       -1.39680000      -3.28730000      -0.10850000
C       -1.19550000      -3.24080000      -1.60700000
C        0.88000000      -2.02790000      -0.50670000
O        1.02680000      -0.84110000       0.29090000
H        0.59950000       1.28630000       1.31910000
H       -2.12090000      -0.60270000      -0.31690000
H       -1.06720000      -0.26060000      -1.69370000
H       -0.85360000      -4.03850000       0.45580000
H       -2.38400000      -3.06300000       0.28170000
H       -2.04570000      -2.99000000      -2.23260000
H       -0.51690000      -3.96200000      -2.05240000
H        1.32040000      -2.86520000       0.04160000
H        1.43350000      -1.89180000      -1.44590000
