22
Properties=species:S:1:pos:R:3 gdb_98411=T pbc="F F F"
C       -0.23080000       1.57050000      -0.27580000
C       -0.32290000       0.09330000      -0.64700000
C        1.02730000      -0.53670000      -0.93840000
O        2.06870000       0.06390000      -0.77970000
C        1.06680000      -1.98790000      -1.38850000
C        2.09250000      -2.81780000      -0.63980000
N       -0.22280000      -2.58620000      -1.77820000
C        0.78380000      -2.33250000      -2.81980000
C        0.45770000      -1.34190000      -3.91150000
H        0.42210000       1.71750000       0.58810000
H        0.18810000       2.15660000      -1.09860000
H       -1.22030000       1.97070000      -0.03740000
H       -0.77390000      -0.49870000       0.16290000
H       -0.99240000      -0.08240000      -1.49500000
H        1.81370000      -2.93010000       0.41440000
H        2.18060000      -3.81730000      -1.07730000
H        3.06790000      -2.32740000      -0.67610000
H       -0.24440000      -3.57120000      -1.52600000
H        1.34200000      -3.19980000      -3.17360000
H       -0.10030000      -0.48310000      -3.53350000
H        1.37620000      -0.97380000      -4.38040000
H       -0.15030000      -1.81940000      -4.68730000
