21
Properties=species:S:1:pos:R:3 gdb_117333=T pbc="F F F"
C        0.21360000       1.34000000       0.40570000
C       -0.03560000      -0.16270000       0.30050000
O       -0.17140000      -0.76020000       1.58840000
C       -1.24760000      -0.49280000      -0.59780000
C       -1.36200000      -1.99980000      -0.80900000
O       -0.64850000      -2.56420000      -1.60980000
C       -2.36050000      -2.74080000       0.05350000
C       -2.36880000      -4.24340000      -0.17640000
O       -3.36400000      -4.79420000       0.67560000
H        1.06630000       1.53400000       1.06230000
H        0.42240000       1.77730000      -0.57530000
H       -0.66360000       1.85370000       0.81970000
H        0.84310000      -0.64870000      -0.13780000
H       -0.82510000      -0.25170000       2.08160000
H       -2.15800000      -0.08010000      -0.14590000
H       -1.10240000      -0.02730000      -1.57760000
H       -2.12310000      -2.51110000       1.10030000
H       -3.36320000      -2.32770000      -0.12220000
H       -2.57790000      -4.45350000      -1.23510000
H       -1.37270000      -4.65370000       0.04150000
H       -3.36750000      -5.74730000       0.54910000
