17
Properties=species:S:1:pos:R:3 gdb_7055=T pbc="F F F"
C        0.40810000       1.05110000      -0.13860000
C        0.11400000      -0.37270000      -0.07660000
C       -0.12970000      -1.55110000      -0.03110000
C       -0.42740000      -2.98280000       0.02080000
C       -1.92300000      -3.27620000      -0.08190000
O        0.19490000      -3.69690000      -1.06740000
C        1.54060000      -3.77680000      -1.03950000
N        2.15220000      -4.38560000      -1.96060000
H        0.92670000       1.30270000      -1.07000000
H       -0.50990000       1.64730000      -0.09860000
H        1.04710000       1.36400000       0.69420000
H       -0.04510000      -3.39550000       0.96610000
H       -2.45590000      -2.79150000       0.73940000
H       -2.31380000      -2.89720000      -1.02880000
H       -2.09140000      -4.35490000      -0.03520000
H        1.99480000      -3.28000000      -0.17230000
H        3.15430000      -4.36190000      -1.78280000
