17
Properties=species:S:1:pos:R:3 gdb_56123=T pbc="F F F"
C        0.20160000       1.43950000       0.04730000
C        0.01550000      -0.06550000       0.04100000
O       -0.15790000      -0.69610000       1.05880000
C        0.03990000      -0.73590000      -1.32850000
C        0.15150000      -2.25430000      -1.25020000
C       -0.43640000      -2.96420000      -2.44190000
O       -1.14940000      -2.45680000      -3.27830000
C       -0.11170000      -4.45840000      -2.59580000
O        0.65490000      -5.05100000      -1.88430000
H        1.23210000       1.68290000      -0.23750000
H       -0.45210000       1.91810000      -0.68960000
H        0.00090000       1.83660000       1.04280000
H       -0.88980000      -0.46160000      -1.84590000
H        0.84110000      -0.29940000      -1.93610000
H        1.18090000      -2.59910000      -1.10730000
H       -0.37740000      -2.61060000      -0.35430000
H       -0.65000000      -4.92690000      -3.44670000
