17
Properties=species:S:1:pos:R:3 gdb_109405=T pbc="F F F"
C       -0.08900000       1.53110000       0.15960000
C        0.13620000       0.06240000       0.01210000
O       -0.70180000      -0.84530000       0.73360000
C        0.72810000      -0.92380000       0.95930000
C        1.21660000      -1.75060000      -0.22570000
O        1.83630000      -2.76600000      -0.36550000
C        0.62770000      -0.72060000      -1.22930000
C       -0.35620000      -1.26490000      -2.26290000
O        0.29220000      -2.17700000      -3.13120000
H        0.78890000       2.09140000      -0.17590000
H       -0.94510000       1.85370000      -0.44250000
H       -0.29300000       1.78240000       1.20340000
H        1.08020000      -0.82960000       1.97980000
H        1.46270000      -0.21660000      -1.73240000
H       -1.21060000      -1.72330000      -1.74540000
H       -0.74210000      -0.45810000      -2.89550000
H        0.72910000      -2.84080000      -2.58380000
