17
Properties=species:S:1:pos:R:3 gdb_13307=T pbc="F F F"
N       -0.05460000      -1.20160000      -0.03210000
C       -0.04600000      -0.04590000      -0.04290000
C       -0.00430000       1.41500000      -0.05380000
C        1.43630000       1.97420000       0.01240000
C        1.46950000       3.52590000      -0.03230000
C        2.60830000       3.94870000       0.93040000
C        2.79730000       2.72250000       1.79140000
C        2.17020000       1.65730000       1.29750000
H       -0.50290000       1.76880000      -0.96370000
H       -0.58650000       1.78790000       0.79690000
H        1.98640000       1.55020000      -0.83960000
H        1.59930000       3.91240000      -1.04610000
H        0.51570000       3.91550000       0.34170000
H        3.53410000       4.18480000       0.38760000
H        2.35690000       4.84500000       1.50820000
H        3.41450000       2.72480000       2.68300000
H        2.19350000       0.65670000       1.71480000
