22
Properties=species:S:1:pos:R:3 gdb_119632=T pbc="F F F"
O       -0.17920000       1.49610000      -0.26030000
C       -0.01480000       0.08630000      -0.23250000
C       -1.36470000      -0.52970000       0.12280000
C       -1.33560000      -2.04070000       0.15950000
C       -1.56770000      -2.84090000      -1.07610000
N       -2.61690000      -2.75200000      -0.04760000
C       -2.63510000      -3.90320000       0.87400000
C       -1.19390000      -4.13180000       1.38670000
C       -0.54900000      -2.73510000       1.27080000
H        0.66780000       1.89340000      -0.48190000
H        0.32110000      -0.29780000      -1.20950000
H        0.74390000      -0.20900000       0.51030000
H       -1.68260000      -0.13870000       1.09760000
H       -2.10680000      -0.19800000      -0.60990000
H       -1.80890000      -2.33440000      -2.00690000
H       -1.03400000      -3.77980000      -1.20520000
H       -3.30330000      -3.64180000       1.70210000
H       -3.05740000      -4.78120000       0.37490000
H       -1.17350000      -4.52170000       2.40730000
H       -0.66380000      -4.85620000       0.76160000
H        0.52570000      -2.78550000       1.07050000
H       -0.67790000      -2.16710000       2.20040000
