15
Properties=species:S:1:pos:R:3 gdb_42708=T pbc="F F F"
O        0.01730000       0.04240000       0.09810000
C       -0.01150000       1.23490000       0.10230000
C       -1.10000000       2.30340000      -0.01040000
C       -1.07750000       3.21730000       1.27040000
N       -0.01240000       2.72500000       2.20250000
C        0.99580000       3.26760000       1.23550000
C       -0.07480000       4.12440000       0.50440000
N       -0.07330000       3.21760000      -0.71450000
C        1.01950000       2.35480000      -0.04610000
H       -2.05460000       2.10180000      -0.49530000
H       -2.02960000       3.50600000       1.71200000
H       -0.01290000       3.31930000       3.02960000
H        1.94710000       3.60240000       1.64520000
H       -0.10290000       5.20870000       0.39740000
H        1.96600000       2.19930000      -0.56280000
