22
Properties=species:S:1:pos:R:3 gdb_8714=T pbc="F F F"
C        0.60230000       0.15090000      -1.31320000
C        0.00700000       0.21330000       0.09810000
C        0.70730000      -0.62880000       1.19180000
O       -0.06710000      -0.53570000       2.38770000
C        0.80870000      -2.12200000       0.84280000
C       -0.53680000      -2.81010000       0.59080000
C        2.11310000      -0.08300000       1.51470000
O        2.04140000       1.19550000       2.14550000
H        0.55820000      -0.86070000      -1.72770000
H        0.04730000       0.80620000      -1.99190000
H        1.64990000       0.47040000      -1.33970000
H       -0.01340000       1.25660000       0.44260000
H       -1.04170000      -0.09720000       0.07240000
H        0.19390000       0.29980000       2.79820000
H        1.46620000      -2.24890000      -0.02590000
H        1.30660000      -2.61470000       1.68600000
H       -1.21280000      -2.64530000       1.43340000
H       -1.02670000      -2.43890000      -0.31490000
H       -0.39830000      -3.88870000       0.46850000
H        2.58730000      -0.74270000       2.24740000
H        2.74980000      -0.05290000       0.62100000
H        1.86170000       1.85580000       1.46920000
