16
Properties=species:S:1:pos:R:3 gdb_125853=T pbc="F F F"
C       -0.10110000       1.59880000      -0.02960000
C        0.00200000       0.06370000       0.01450000
C        0.83510000      -0.51620000      -1.12890000
C        1.85810000      -1.27740000      -0.68510000
C        1.77340000      -1.25670000       0.76410000
C        0.72740000      -0.49970000       1.20580000
C        0.83010000      -0.61160000       2.60850000
N        1.84990000      -1.36940000       2.96870000
O        2.46500000      -1.79130000       1.76590000
H        0.89140000       2.05440000       0.02580000
H       -0.58170000       1.92930000      -0.95540000
H       -0.69540000       1.96910000       0.81070000
H       -1.01410000      -0.35220000      -0.05430000
H        0.60440000      -0.31170000      -2.16730000
H        2.59430000      -1.80130000      -1.27780000
H        0.22130000      -0.18460000       3.39360000
