19
Properties=species:S:1:pos:R:3 gdb_62270=T pbc="F F F"
C       -0.01660000       1.55130000       0.03250000
C        0.05810000       0.02030000       0.00690000
C       -1.27310000      -0.55210000       0.18610000
C       -2.37870000      -0.99900000       0.34430000
C        0.80290000      -0.67860000      -1.14660000
C        2.29620000      -0.74130000      -0.78150000
C        2.47400000      -0.11470000       0.59970000
C        1.09150000      -0.73220000       0.93530000
C        1.32250000      -1.76260000      -0.24300000
H        0.95220000       2.00250000      -0.19130000
H       -0.73340000       1.90480000      -0.71500000
H       -0.35350000       1.90940000       1.01080000
H       -3.35290000      -1.39860000       0.48010000
H        0.46780000      -0.77210000      -2.17180000
H        3.04040000      -0.88080000      -1.55550000
H        3.26610000      -0.62560000       1.15470000
H        2.60510000       0.96740000       0.70120000
H        0.80650000      -0.96840000       1.95780000
H        1.28000000      -2.83910000      -0.30740000
