18
Properties=species:S:1:pos:R:3 gdb_5617=T pbc="F F F"
C        0.02310000       1.56790000       0.08930000
C       -0.05430000       0.03700000      -0.04680000
C        0.68050000      -0.49900000      -1.24110000
C        0.13730000      -0.92990000      -2.41080000
O        1.09910000      -1.33660000      -3.28130000
C        2.28890000      -1.16170000      -2.64650000
C        2.11100000      -0.65390000      -1.39840000
C        3.17590000      -0.34060000      -0.39320000
H        1.05840000       1.90900000       0.18640000
H       -0.40500000       2.05730000      -0.79090000
H       -0.52650000       1.90940000       0.97240000
H        0.34220000      -0.42470000       0.86670000
H       -1.10600000      -0.26520000      -0.10700000
H       -0.87890000      -1.01320000      -2.76160000
H        3.16590000      -1.44750000      -3.20490000
H        3.23060000       0.73190000      -0.17350000
H        2.99370000      -0.85230000       0.55910000
H        4.16000000      -0.65350000      -0.75360000
