19
Properties=species:S:1:pos:R:3 gdb_37573=T pbc="F F F"
C       -0.04180000       1.54690000      -0.19980000
C        1.42030000       2.06430000      -0.01230000
N        2.20510000       0.84530000      -0.25180000
C        3.20120000       0.32210000       0.73750000
C        2.17620000       0.07450000       1.89740000
N        2.46030000      -1.38820000       2.04740000
C        2.63730000      -1.14460000       0.58160000
C        1.43230000      -0.16150000       0.51470000
C       -0.02860000       0.02250000       0.19580000
H       -0.74770000       2.12200000       0.40400000
H       -0.34410000       1.65370000      -1.24430000
H        1.67630000       2.85480000      -0.72300000
H        1.55040000       2.46890000       1.00430000
H        4.24460000       0.64180000       0.78670000
H        1.90620000       0.70350000       2.74640000
H        3.37360000      -1.52170000       2.49020000
H        2.92930000      -1.90910000      -0.13830000
H       -0.67620000      -0.20260000       1.04570000
H       -0.34310000      -0.60200000      -0.64430000
