17
Properties=species:S:1:pos:R:3 gdb_14113=T pbc="F F F"
C        0.13220000       1.25550000      -0.74330000
C       -0.04210000       0.09040000       0.21130000
O        0.75340000      -0.15800000       1.09300000
C       -1.25400000      -0.75890000       0.04750000
C       -1.97420000      -0.97310000      -1.23730000
N       -2.64990000      -0.16070000      -0.23080000
C       -3.19540000      -1.13780000       0.78450000
C       -1.78980000      -1.69660000       1.12380000
H        0.89060000       1.93230000      -0.34840000
H        0.46390000       0.89120000      -1.72260000
H       -0.81550000       1.78230000      -0.88900000
H       -1.65350000      -0.40430000      -2.10390000
H       -2.34700000      -1.97170000      -1.46160000
H       -3.66690000      -0.59200000       1.60290000
H       -3.92040000      -1.83560000       0.35330000
H       -1.61160000      -2.76380000       0.96960000
H       -1.44080000      -1.42000000       2.11860000
