19
Properties=species:S:1:pos:R:3 gdb_39898=T pbc="F F F"
C       -0.01580000       1.47960000       0.00700000
C        1.29840000       0.71590000      -0.01020000
C       -0.00340000      -0.01220000       0.01790000
C       -0.52760000      -0.93900000       1.11140000
C       -2.00600000      -1.00970000       0.67860000
O       -1.93200000      -1.00130000      -0.76580000
C       -0.54680000      -0.92290000      -1.06500000
O        0.07640000      -2.16840000      -0.79220000
C        0.13420000      -2.25340000       0.65050000
H       -0.28880000       2.00130000       0.91900000
H       -0.32440000       1.98580000      -0.90210000
H        1.87310000       0.70880000      -0.93090000
H        1.90460000       0.72670000       0.89030000
H       -0.35280000      -0.66170000       2.15070000
H       -2.50690000      -1.92520000       1.01420000
H       -2.58300000      -0.14180000       1.02050000
H       -0.41630000      -0.67450000      -2.11710000
H        1.18040000      -2.32870000       0.97110000
H       -0.40670000      -3.14560000       0.98660000
