13
Properties=species:S:1:pos:R:3 gdb_44710=T pbc="F F F"
O        0.01110000      -0.00960000      -0.35190000
C       -0.00460000       1.14420000      -0.06000000
C       -1.10520000       2.14800000       0.35090000
C       -0.00600000       3.22310000       0.54240000
O        0.34230000       3.45140000       1.90280000
C        1.48730000       2.78930000       2.23390000
O        1.99530000       2.80800000       3.30450000
O        1.97500000       2.10240000       1.15680000
C        1.10120000       2.24630000       0.05070000
H       -1.81330000       2.35720000      -0.45680000
H       -1.66470000       1.89200000       1.25430000
H       -0.14200000       4.17910000       0.03890000
H        1.67140000       2.46570000      -0.85370000
