21
Properties=species:S:1:pos:R:3 gdb_71620=T pbc="F F F"
O       -0.06640000       1.39450000      -0.01490000
C        0.01070000       0.00290000       0.02330000
C        0.35100000      -0.80490000       1.31430000
C       -0.40860000      -1.91740000       0.56190000
C       -1.32450000      -0.81180000      -0.04700000
C       -1.80550000      -1.26980000      -1.42970000
C       -0.79350000      -2.40000000      -1.78780000
C        0.34770000      -2.16170000      -0.78210000
C        0.89450000      -0.71960000      -1.01520000
H        0.82530000       1.74720000      -0.10700000
H        1.40440000      -0.95850000       1.57020000
H       -0.20190000      -0.43980000       2.18320000
H       -0.81590000      -2.79200000       1.06830000
H       -2.08270000      -0.40660000       0.62420000
H       -2.83460000      -1.63880000      -1.39750000
H       -1.78610000      -0.44990000      -2.15550000
H       -1.24440000      -3.38630000      -1.62850000
H       -0.45150000      -2.36030000      -2.82680000
H        1.11060000      -2.94230000      -0.76890000
H        0.73130000      -0.36470000      -2.03740000
H        1.95920000      -0.61210000      -0.78090000
