17
Properties=species:S:1:pos:R:3 gdb_48368=T pbc="F F F"
O       -0.99870000       2.49850000       1.18750000
C       -0.24770000       1.64410000       0.79840000
C        0.95090000       1.90770000      -0.06960000
C        2.21320000       1.27650000       0.37470000
O        1.46840000       0.72890000      -0.70080000
C        0.94240000       3.18670000      -0.86980000
C        2.01810000       3.36880000      -1.96140000
C        0.81670000       3.44670000      -2.92460000
O       -0.11580000       3.18180000      -1.85450000
H       -0.36530000       0.56970000       1.06430000
H        3.15380000       1.75690000       0.10920000
H        2.23090000       0.68300000       1.28800000
H        0.82740000       4.02880000      -0.17600000
H        2.63270000       4.26520000      -1.87740000
H        2.65040000       2.49310000      -2.11140000
H        0.64470000       4.43070000      -3.37720000
H        0.77140000       2.67930000      -3.70500000
