17
Properties=species:S:1:pos:R:3 gdb_108731=T pbc="F F F"
O        0.02770000       1.38450000      -0.07780000
C       -0.02460000      -0.02220000       0.02130000
C       -1.44340000      -0.48050000       0.04550000
C       -2.54910000       0.28150000       0.00390000
C       -3.76600000      -0.57010000       0.05710000
O       -4.91800000      -0.20630000       0.12170000
C       -3.28210000      -2.00970000       0.04260000
C       -2.49000000      -2.43210000      -1.18240000
C       -1.77910000      -1.94240000       0.06250000
H        0.94880000       1.65710000      -0.04280000
H        0.48830000      -0.51550000      -0.82390000
H        0.47680000      -0.38750000       0.93560000
H       -2.58050000       1.35850000      -0.07360000
H       -3.85130000      -2.75720000       0.57940000
H       -2.46270000      -3.49550000      -1.39810000
H       -2.49350000      -1.78660000      -2.05430000
H       -1.17250000      -2.63490000       0.63520000
