20
Properties=species:S:1:pos:R:3 gdb_78673=T pbc="F F F"
C        0.01800000       1.53470000      -0.14180000
N        0.03560000       0.09190000       0.08780000
C       -0.88940000      -0.51730000       1.03030000
C        0.06940000      -1.60250000       1.39020000
C        1.12550000      -0.56180000       0.85610000
C        1.12680000       0.01020000       2.31910000
O        1.28060000       1.38810000       2.58530000
C       -0.26680000      -0.56560000       2.45850000
C       -1.07410000      -0.71720000       3.71240000
H        0.90830000       1.80900000      -0.71860000
H       -0.85620000       1.77220000      -0.75900000
H       -0.00720000       2.14390000       0.76830000
H       -1.96140000      -0.56030000       0.87510000
H        0.01280000      -2.68040000       1.36940000
H        2.05610000      -0.76310000       0.32540000
H        1.82460000      -0.58530000       2.92680000
H        2.21700000       1.60620000       2.54480000
H       -1.36110000       0.26120000       4.11220000
H       -1.99390000      -1.28220000       3.52520000
H       -0.51440000      -1.24630000       4.49270000
