21
Properties=species:S:1:pos:R:3 gdb_31235=T pbc="F F F"
C       -0.28870000       1.55910000       0.00430000
C        0.02400000       0.04960000       0.00780000
C        0.78250000      -0.43270000      -1.18560000
C        2.13650000      -0.67370000      -1.35490000
N        3.11400000      -0.53730000      -0.34900000
C        4.49970000      -0.72640000      -0.73940000
C        2.33330000      -1.12660000      -2.69400000
C        1.09880000      -1.14610000      -3.30490000
N        0.17500000      -0.71650000      -2.39490000
H        0.63110000       2.15100000      -0.03960000
H       -0.89420000       1.83440000      -0.86560000
H       -0.83980000       1.85110000       0.90480000
H        0.60750000      -0.19990000       0.90190000
H       -0.91790000      -0.50900000       0.10270000
H        2.99490000       0.31560000       0.18010000
H        5.14180000      -0.55790000       0.12940000
H        4.65280000      -1.75920000      -1.07040000
H        4.83490000      -0.06140000      -1.55350000
H        3.26780000      -1.40590000      -3.15360000
H        0.81090000      -1.42920000      -4.30430000
H       -0.81310000      -0.64730000      -2.56250000
