18
Properties=species:S:1:pos:R:3 gdb_70132=T pbc="F F F"
C        0.04370000       1.50180000      -0.01500000
C        0.06540000      -0.00700000      -0.01180000
N       -0.77980000      -0.76020000       0.94870000
C        0.68530000      -0.76600000       1.13280000
C        1.36980000      -2.05780000       0.87110000
C        1.18250000      -2.71900000      -0.26950000
C        0.30290000      -2.18370000      -1.37310000
C        0.17930000      -0.66420000      -1.35970000
O        0.20820000      -0.00850000      -2.37800000
H        0.92220000       1.90290000      -0.52720000
H       -0.83780000       1.87320000      -0.54630000
H        0.02820000       1.89180000       1.00780000
H       -1.20560000      -0.09240000       1.58860000
H        1.08600000      -0.15430000       1.93730000
H        2.00890000      -2.45720000       1.65240000
H        1.65560000      -3.68230000      -0.43530000
H        0.65970000      -2.47770000      -2.36340000
H       -0.71070000      -2.59620000      -1.26130000
