13
Properties=species:S:1:pos:R:3 gdb_80324=T pbc="F F F"
O       -0.25770000       1.44440000      -0.02150000
C       -0.12740000       0.06720000       0.02730000
C       -0.48520000      -0.69440000       1.27000000
O       -1.26310000       0.03400000       2.20550000
C       -2.42620000       0.32500000       1.55360000
N       -2.60660000      -0.13380000       0.37900000
C       -1.38490000      -0.79070000       0.02030000
C       -3.36500000       1.11620000       2.28870000
N       -4.11650000       1.75410000       2.89100000
H        0.27010000       1.82870000       0.68750000
H        0.69300000      -0.35920000      -0.54930000
H        0.12510000      -1.46160000       1.72840000
H       -1.45850000      -1.63840000      -0.64840000
