19
Properties=species:S:1:pos:R:3 gdb_70624=T pbc="F F F"
C       -0.31600000       1.41110000       0.10490000
C        0.02220000      -0.04970000       0.01850000
O       -0.33800000      -0.86710000       1.15410000
C        1.04530000      -0.74260000       0.81120000
C        1.54960000      -1.90070000      -0.02040000
O        0.59630000      -2.05340000      -1.06950000
C       -0.08460000      -0.83170000      -1.26230000
C       -1.28340000      -0.88180000      -2.14980000
C       -0.01900000      -0.18570000      -2.62450000
H        0.32100000       2.00680000      -0.55530000
H       -1.35960000       1.58910000      -0.17750000
H       -0.18200000       1.76090000       1.13070000
H        1.68860000      -0.24900000       1.53560000
H        2.55350000      -1.66820000      -0.41120000
H        1.59590000      -2.84710000       0.52780000
H       -1.51990000      -1.84630000      -2.58420000
H       -2.14460000      -0.27520000      -1.89120000
H       -0.02240000       0.89570000      -2.70900000
H        0.58180000      -0.70130000      -3.36490000
