19
Properties=species:S:1:pos:R:3 gdb_70030=T pbc="F F F"
C       -0.20970000       1.46140000       0.15140000
C        0.11590000       0.01200000      -0.00130000
O       -0.77790000      -0.95290000       0.57320000
C        0.60710000      -1.00700000       0.95200000
C        1.37790000      -1.73990000      -0.17350000
O        0.97470000      -3.02290000      -0.56680000
C       -0.13990000      -2.91220000      -1.46160000
C       -0.02940000      -1.53260000      -2.15910000
C        0.81440000      -0.69340000      -1.19000000
H        0.66960000       2.08060000      -0.05360000
H       -0.99930000       1.75890000      -0.54830000
H       -0.55900000       1.66990000       1.16610000
H        0.82570000      -0.94500000       2.01300000
H        2.46000000      -1.73260000      -0.01500000
H       -0.07390000      -3.75000000      -2.16310000
H       -1.07820000      -2.98800000      -0.90430000
H        0.48930000      -1.62630000      -3.11740000
H       -1.01660000      -1.10440000      -2.35020000
H        1.57020000      -0.07440000      -1.67600000
