19
Properties=species:S:1:pos:R:3 gdb_102125=T pbc="F F F"
O        0.02480000       1.42610000      -0.07270000
C        0.06530000       0.01310000       0.06400000
C       -1.37880000      -0.47640000       0.06090000
C       -2.07070000      -0.06590000      -1.23530000
O       -3.26580000       0.02590000      -1.35870000
C       -1.45090000      -1.99720000       0.24170000
C       -2.82650000      -2.69740000       0.21000000
C       -2.23110000      -3.49910000      -0.96510000
O       -1.01720000      -2.70980000      -0.94440000
H        0.92030000       1.74660000      -0.21420000
H        0.60880000      -0.45940000      -0.76860000
H        0.56180000      -0.28930000       0.99860000
H       -1.92480000      -0.01000000       0.89020000
H       -1.39000000       0.12610000      -2.09150000
H       -0.83520000      -2.28120000       1.10800000
H       -3.08560000      -3.26700000       1.10310000
H       -3.64990000      -2.03890000      -0.06480000
H       -2.02650000      -4.55620000      -0.75590000
H       -2.75120000      -3.41680000      -1.92520000
