22
Properties=species:S:1:pos:R:3 gdb_86147=T pbc="F F F"
C       -0.51790000       1.32630000       0.11750000
C        0.25920000       0.03700000      -0.12470000
C        1.44220000       0.09040000      -1.10850000
N        2.34420000      -1.02320000      -0.75450000
C        2.10180000      -2.23660000      -1.52280000
C        2.24620000      -1.20750000       0.70210000
C        3.44490000      -0.62820000       1.46520000
C        0.93760000      -0.51470000       1.13160000
O        0.54340000      -0.40390000       2.26430000
H        0.16180000       2.15060000       0.35890000
H       -1.09970000       1.61480000      -0.76270000
H       -1.20040000       1.20110000       0.96240000
H       -0.43400000      -0.75280000      -0.45340000
H        1.14090000       0.01320000      -2.15580000
H        1.97240000       1.04620000      -0.99300000
H        2.25070000      -2.03190000      -2.58750000
H        2.82480000      -3.00440000      -1.23120000
H        1.08900000      -2.66540000      -1.39880000
H        2.15630000      -2.27340000       0.94650000
H        3.59260000       0.42710000       1.21570000
H        3.27550000      -0.70730000       2.54260000
H        4.35810000      -1.16780000       1.20190000
