20
Properties=species:S:1:pos:R:3 gdb_89816=T pbc="F F F"
C       -0.19320000       1.54110000       0.09660000
C       -0.14860000       0.04790000       0.05480000
C       -0.26610000      -0.75840000      -1.00560000
C       -0.12750000      -2.19250000      -0.64910000
C       -0.67690000      -3.28440000      -1.49190000
N        0.77970000      -3.07620000      -1.42200000
C       -0.07180000      -2.22910000       0.87970000
C        0.13660000      -0.75500000       1.31560000
O        1.43740000      -0.46730000       1.83160000
H        0.70600000       1.93250000       0.58530000
H       -0.26990000       1.97860000      -0.90240000
H       -1.04770000       1.89290000       0.68910000
H       -0.42390000      -0.43110000      -2.02980000
H       -1.02880000      -4.19920000      -1.02100000
H       -1.20410000      -3.01660000      -2.40490000
H        1.09870000      -2.59340000      -2.26000000
H       -1.01430000      -2.61190000       1.28390000
H        0.73350000      -2.86900000       1.24670000
H       -0.53540000      -0.48020000       2.13600000
H        2.07170000      -0.67330000       1.13510000
