19
Properties=species:S:1:pos:R:3 gdb_55758=T pbc="F F F"
C        0.47370000       1.38750000       0.07840000
C        0.18240000      -0.09940000       0.15640000
O        0.11620000      -0.68880000       1.21020000
C       -0.04860000      -0.81580000      -1.17580000
C       -0.00430000      -2.30860000      -1.05220000
C        1.23010000      -3.15670000      -1.29850000
C       -0.02700000      -3.42630000      -2.06980000
O       -0.93170000      -4.22150000      -1.30380000
C       -1.02280000      -3.16520000      -0.30410000
H        1.46280000       1.54520000      -0.36800000
H       -0.25000000       1.89570000      -0.56790000
H        0.45640000       1.82480000       1.07730000
H       -1.03120000      -0.47930000      -1.54310000
H        0.67650000      -0.45430000      -1.91530000
H        2.01920000      -2.65460000      -1.85160000
H        1.57030000      -3.87780000      -0.56010000
H       -0.11810000      -3.44570000      -3.15040000
H       -0.75540000      -3.50550000       0.70050000
H       -2.03160000      -2.73560000      -0.29540000
