15
Properties=species:S:1:pos:R:3 gdb_49027=T pbc="F F F"
O       -0.06760000       0.04950000      -0.26160000
C        0.07940000       1.14370000       0.22600000
C        1.32390000       1.95690000       0.05920000
O        1.44790000       3.06800000       0.95080000
C        1.69080000       3.99480000      -0.14260000
C        1.57430000       2.86540000      -1.19060000
C        2.85450000       2.04340000      -1.47700000
O        3.69740000       2.12990000      -0.32860000
C        2.63560000       1.18260000      -0.30030000
H       -0.71050000       1.64270000       0.82850000
H        0.89840000       4.74870000      -0.19760000
H        2.66930000       4.47380000      -0.06060000
H        0.84870000       2.94660000      -1.99710000
H        3.32450000       1.84040000      -2.43140000
H        2.87260000       0.14430000      -0.10330000
