19
Properties=species:S:1:pos:R:3 gdb_94956=T pbc="F F F"
C       -0.02000000       1.38360000      -0.26920000
C       -0.02210000      -0.10920000       0.06350000
O        0.61190000      -0.88550000      -0.96160000
C        2.01130000      -0.89010000      -0.71260000
C        2.16250000      -0.91450000       0.82020000
C        0.75600000      -0.44850000       1.34340000
C        0.49150000      -1.86780000       1.93560000
C        1.89210000      -2.28460000       1.46560000
O        2.54620000      -3.28030000       1.57550000
H        0.99530000       1.79380000      -0.27860000
H       -0.46600000       1.54960000      -1.25350000
H       -0.59970000       1.94210000       0.47300000
H       -1.05560000      -0.46950000       0.11060000
H        2.43680000      -1.77030000      -1.20210000
H        2.49700000       0.00490000      -1.12820000
H        3.06440000      -0.40970000       1.17180000
H        0.74880000       0.35780000       2.07660000
H        0.35430000      -1.91920000       3.01960000
H       -0.31640000      -2.42950000       1.45520000
