15
Properties=species:S:1:pos:R:3 gdb_16762=T pbc="F F F"
O        0.11570000       1.36100000       0.10940000
C        0.01000000      -0.03700000       0.05900000
C       -1.42170000      -0.47540000       0.07010000
N       -2.41460000       0.32490000       0.05560000
C       -3.60100000      -0.49880000       0.02750000
C       -3.75160000      -1.39400000      -1.18720000
C       -3.08790000      -1.92860000       0.04740000
O       -1.67030000      -1.81010000       0.10470000
H       -0.78960000       1.70240000       0.07940000
H        0.49280000      -0.43950000      -0.84590000
H        0.52330000      -0.49870000       0.91610000
H       -4.46970000      -0.13270000       0.56000000
H       -4.74560000      -1.77640000      -1.39170000
H       -3.14650000      -1.18000000      -2.06180000
H       -3.46470000      -2.76750000       0.61670000
