19
Properties=species:S:1:pos:R:3 gdb_85813=T pbc="F F F"
C       -0.68740000       1.12810000      -0.06400000
C        0.08470000      -0.16590000      -0.24320000
C        1.41600000      -0.19140000      -1.06480000
O        2.14770000       1.01200000      -1.04250000
C        1.93800000      -1.27470000      -0.07690000
C        0.88820000      -0.76370000       0.96020000
O        1.41640000       0.34340000       1.70440000
C        0.24360000      -1.72800000       1.83630000
C       -0.27010000      -2.53530000       2.56530000
H       -0.04120000       1.93530000       0.28470000
H       -1.13040000       1.43800000      -1.01590000
H       -1.49670000       1.00200000       0.66210000
H       -0.56970000      -0.95740000      -0.62180000
H        1.33250000      -0.47950000      -2.11480000
H        2.24610000       1.25910000      -0.11350000
H        1.71890000      -2.29170000      -0.41050000
H        2.98530000      -1.20020000       0.22660000
H        1.98230000      -0.01500000       2.39770000
H       -0.73270000      -3.24460000       3.20650000
