18
Properties=species:S:1:pos:R:3 gdb_49515=T pbc="F F F"
O       -0.87470000       0.96950000       0.18830000
C        0.27120000       0.67990000      -0.04370000
C        1.42470000       1.65630000      -0.02740000
C        1.39760000       2.79950000       1.00320000
C        1.85340000       1.65540000       1.97040000
N        2.60990000       1.11220000       0.74940000
C        3.60300000       2.22320000       0.62380000
C        3.53540000       3.24090000      -0.48140000
C        2.76550000       3.48420000       0.79670000
H        0.56930000      -0.35220000      -0.33560000
H        1.63380000       1.87450000      -1.08030000
H        0.51620000       3.41900000       1.16610000
H        2.49370000       1.91680000       2.81570000
H        1.06400000       0.96700000       2.28120000
H        4.53770000       2.03540000       1.13730000
H        4.44010000       3.83280000      -0.58730000
H        3.04780000       3.05750000      -1.43160000
H        3.03980000       4.30200000       1.45250000
