23
Properties=species:S:1:pos:R:3 gdb_115950=T pbc="F F F"
C       -0.03190000       1.58060000      -0.14140000
C        0.02480000       0.05990000       0.03470000
C       -1.34570000      -0.59670000      -0.05570000
O       -1.89320000      -0.38210000      -1.35920000
C       -3.02880000      -1.23300000      -1.45540000
C       -2.63560000      -2.54380000      -0.76160000
C       -1.68900000      -3.47990000      -1.56330000
C       -0.48350000      -3.01270000      -0.70250000
C       -1.43130000      -2.11680000       0.15000000
H        0.96780000       2.02220000      -0.08640000
H       -0.46940000       1.83820000      -1.10930000
H       -0.64610000       2.04610000       0.63770000
H        0.68200000      -0.37510000      -0.72580000
H        0.45890000      -0.19130000       1.01060000
H       -2.01200000      -0.12260000       0.69070000
H       -3.89310000      -0.77480000      -0.94610000
H       -3.27410000      -1.34850000      -2.51560000
H       -3.48800000      -3.03100000      -0.28460000
H       -1.92750000      -4.54100000      -1.45840000
H       -1.61680000      -3.24980000      -2.63020000
H        0.01070000      -3.80610000      -0.13710000
H        0.28080000      -2.46610000      -1.25860000
H       -1.48880000      -2.38400000       1.20690000
