16
Properties=species:S:1:pos:R:3 gdb_77331=T pbc="F F F"
C       -0.06800000       1.37310000       0.03490000
N       -0.02720000      -0.06290000      -0.16480000
C       -1.19410000      -0.89690000       0.02230000
C       -0.56960000      -2.28970000      -0.21870000
O        0.80230000      -2.12350000       0.13390000
C        1.12370000      -0.79120000       0.10230000
N        2.27210000      -0.29590000       0.27390000
C       -1.79990000      -0.76250000       1.36750000
N       -2.27140000      -0.63480000       2.41470000
H        0.93890000       1.75570000      -0.13160000
H       -0.75740000       1.83010000      -0.68140000
H       -0.38380000       1.63710000       1.05280000
H       -1.97100000      -0.67330000      -0.71680000
H       -1.00420000      -3.07480000       0.40040000
H       -0.65220000      -2.55940000      -1.27710000
H        2.96740000      -1.02770000       0.39390000
