17
Properties=species:S:1:pos:R:3 gdb_31579=T pbc="F F F"
C        0.00320000       1.32650000      -0.02270000
O       -0.07850000      -0.09970000      -0.10050000
C       -1.30700000      -0.59000000      -0.02590000
N       -2.43020000       0.04480000       0.09600000
C       -3.37420000      -0.98370000       0.11910000
N       -4.71970000      -0.66650000       0.30640000
C       -2.75900000      -2.18830000       0.00840000
C       -3.18430000      -3.60680000      -0.01360000
O       -1.38320000      -1.91980000      -0.08950000
H        1.06470000       1.56450000      -0.08990000
H       -0.54670000       1.78890000      -0.84730000
H       -0.41190000       1.68420000       0.92370000
H       -4.90920000       0.28360000       0.01530000
H       -5.35520000      -1.30670000      -0.15010000
H       -2.92930000      -4.10850000      -0.95580000
H       -2.72910000      -4.18620000       0.79940000
H       -4.26920000      -3.66530000       0.11320000
