22
Properties=species:S:1:pos:R:3 gdb_100045=T pbc="F F F"
C        1.24480000       1.01910000      -0.89930000
N        0.53960000      -0.07490000      -0.24400000
C        1.29720000      -1.23860000       0.18100000
C        0.66680000      -0.33810000       1.19350000
C        1.42710000       0.51690000       2.20880000
C        2.95050000       0.54910000       2.08550000
O        0.99970000       1.89720000       2.11420000
C        1.03960000       0.03790000       3.63080000
O        1.53240000       0.91370000       4.61820000
H        2.30570000       1.11250000      -0.63160000
H        1.18430000       0.85720000      -1.98050000
H        0.75350000       1.96610000      -0.66400000
H        0.86210000      -2.21130000      -0.03750000
H        2.38100000      -1.19790000       0.08550000
H       -0.28750000      -0.67650000       1.60250000
H        3.27610000       1.03930000       1.16740000
H        3.35870000       1.10050000       2.93550000
H        3.35890000      -0.46410000       2.11140000
H        0.04400000       1.90000000       1.98420000
H       -0.06010000      -0.04410000       3.68680000
H        1.45510000      -0.95580000       3.82990000
H        1.34090000       1.80050000       4.28280000
