15
Properties=species:S:1:pos:R:3 gdb_5124=T pbc="F F F"
C       -0.10320000       1.44420000       0.01270000
N        0.07900000       0.00920000      -0.01260000
C        0.19590000      -0.78710000      -1.13830000
C        0.28760000      -2.09960000      -0.74090000
C        0.20380000      -2.10750000       0.68180000
O        0.31590000      -3.15330000       1.57800000
C        0.07090000      -0.80190000       1.08810000
O       -0.03540000      -0.26090000       2.32920000
H        0.28960000       1.86790000      -0.91380000
H       -1.15980000       1.72120000       0.10770000
H        0.44210000       1.87300000       0.85640000
H        0.20760000      -0.33940000      -2.11830000
H        0.41520000      -2.95550000      -1.38550000
H       -0.37080000      -3.80000000       1.38520000
H        0.04460000      -0.99600000       2.94910000
