21
Properties=species:S:1:pos:R:3 gdb_83260=T pbc="F F F"
C       -0.09020000       1.57900000      -0.05450000
C       -0.00400000       0.05100000      -0.01470000
C        0.68180000      -0.58380000      -1.24670000
C        1.30000000      -1.91410000      -0.74910000
C        1.53070000      -1.72780000       0.74540000
C        2.24900000      -0.47480000       1.22230000
O        2.96450000       0.37310000       0.36580000
C        0.74750000      -0.51190000       1.19150000
O        0.06460000      -0.54800000       2.41240000
H        0.90860000       2.01990000      -0.12160000
H       -0.67530000       1.91880000      -0.91560000
H       -0.58010000       1.97240000       0.84410000
H       -1.02080000      -0.35510000       0.07650000
H       -0.02330000      -0.73920000      -2.06860000
H        1.46860000       0.08140000      -1.60730000
H        0.60210000      -2.74690000      -0.89250000
H        2.21350000      -2.17160000      -1.29740000
H        1.59880000      -2.60250000       1.38350000
H        2.66370000      -0.55430000       2.22810000
H        3.76570000      -0.08670000       0.09290000
H        0.07450000       0.34100000       2.78420000
