21
Properties=species:S:1:pos:R:3 gdb_82295=T pbc="F F F"
C        0.14490000       1.52980000      -0.12070000
C        0.00960000       0.02040000       0.01570000
C       -1.45950000      -0.41920000       0.00690000
O        0.67020000      -0.58080000      -1.12930000
C        1.21380000      -1.81570000      -0.75460000
C        2.58790000      -1.74040000      -0.15540000
C        1.35910000      -1.85770000       0.73810000
C        0.73790000      -0.57160000       1.27520000
O        1.64520000       0.30910000       1.91520000
H        1.19500000       1.82560000      -0.14590000
H       -0.33580000       1.86610000      -1.04400000
H       -0.32850000       2.03570000       0.72520000
H       -1.92520000      -0.14820000      -0.94450000
H       -1.54150000      -1.50450000       0.12950000
H       -2.01910000       0.05780000       0.81820000
H        0.89810000      -2.66320000      -1.35560000
H        3.23510000      -2.60960000      -0.20440000
H        3.10270000      -0.78940000      -0.25740000
H        1.23550000      -2.77400000       1.30160000
H       -0.00850000      -0.80640000       2.03990000
H        2.49560000       0.23660000       1.47050000
