14
Properties=species:S:1:pos:R:3 gdb_131747=T pbc="F F F"
O        0.17010000       1.39170000       0.23180000
C        0.04320000       0.00400000       0.10580000
C       -1.37000000      -0.47380000      -0.09630000
N       -2.27710000       0.42710000      -0.19450000
O       -3.59440000      -0.00470000      -0.39760000
C       -3.88570000      -1.34640000      -0.47520000
N       -5.06260000      -1.78330000      -0.64680000
C       -2.74350000      -2.25390000      -0.35050000
N       -1.53770000      -1.86070000      -0.17210000
H       -0.67820000       1.78550000      -0.00840000
H        0.63690000      -0.38430000      -0.73940000
H        0.43540000      -0.49420000       1.00480000
H       -5.73900000      -1.02030000      -0.71450000
H       -2.96630000      -3.31650000      -0.41940000
