18
Properties=species:S:1:pos:R:3 gdb_66570=T pbc="F F F"
C       -0.01170000       1.48910000       0.03550000
C       -0.05290000      -0.01130000      -0.01260000
C       -1.35080000      -0.84820000      -0.01930000
C       -0.44190000      -1.92400000       0.60040000
C        0.70320000      -2.22650000      -0.37120000
C        1.64030000      -1.32880000       0.40160000
N        0.45570000      -0.82460000       1.21140000
C        1.00690000      -0.78260000      -0.83220000
O        1.61460000      -0.44720000      -2.01980000
H        1.00850000       1.84060000       0.22120000
H       -0.34350000       1.91560000      -0.91790000
H       -0.65870000       1.87190000       0.83030000
H       -2.07560000      -0.46840000       0.70640000
H       -1.84170000      -1.05510000      -0.97470000
H       -0.82210000      -2.70560000       1.25930000
H        0.92010000      -3.08940000      -0.98860000
H        2.65980000      -1.43150000       0.75040000
H        1.05540000      -0.73680000      -2.74970000
