18
Properties=species:S:1:pos:R:3 gdb_38064=T pbc="F F F"
C        0.05830000       1.48590000       0.01560000
C        1.29660000       0.65730000      -0.07520000
C        2.01470000       0.44530000       1.21160000
C        1.22490000      -0.20300000       2.06890000
C       -0.09450000      -0.54500000       1.42830000
C       -0.56940000      -2.02110000       1.48740000
O       -1.72470000      -1.67410000       2.27620000
C       -1.40640000      -0.27380000       2.21310000
N       -0.03380000       0.02000000       0.06420000
H       -0.08870000       2.05200000       0.93270000
H       -0.37120000       1.92990000      -0.87840000
H        1.81440000       0.54130000      -1.02330000
H        3.02260000       0.79370000       1.39940000
H        1.45610000      -0.44810000       3.09910000
H       -0.83680000      -2.42310000       0.50330000
H        0.09250000      -2.72110000       2.01160000
H       -1.28850000       0.16950000       3.20950000
H       -2.14770000       0.30100000       1.64360000
