14
Properties=species:S:1:pos:R:3 gdb_35653=T pbc="F F F"
C       -0.18550000      -1.25010000      -0.13840000
C       -0.04310000      -0.06120000      -0.04730000
C        0.09190000       1.38160000       0.09000000
C       -0.54210000       1.94530000       1.40380000
N        0.40820000       3.01690000       1.73080000
C        1.57080000       2.70700000       1.04060000
N        1.51020000       1.83020000       0.11070000
C        2.77930000       3.41760000       1.36430000
N        3.73070000       3.99980000       1.66550000
H       -0.29830000      -2.30220000      -0.23090000
H       -0.37650000       1.86580000      -0.77880000
H       -1.54920000       2.33560000       1.24720000
H       -0.57190000       1.17650000       2.18490000
H        0.49210000       3.31910000       2.69120000
