18
Properties=species:S:1:pos:R:3 gdb_51802=T pbc="F F F"
O       -0.11260000       0.06670000       0.62440000
C       -0.01300000       1.18870000       0.17350000
N        1.14270000       1.76470000      -0.25190000
C        2.43290000       1.10140000      -0.20800000
C        3.06080000       0.86610000      -1.61060000
C        4.59110000       0.91310000      -1.40150000
C        4.76220000       1.80690000      -0.18780000
O        3.98100000       3.01230000      -0.24400000
C        3.49010000       1.90450000       0.53120000
H       -0.87700000       1.87280000       0.05940000
H        1.11520000       2.71100000      -0.60010000
H        2.26320000       0.15510000       0.31330000
H        2.71790000      -0.07030000      -2.05490000
H        2.75220000       1.67750000      -2.27430000
H        4.99580000      -0.07870000      -1.16660000
H        5.12580000       1.28480000      -2.28080000
H        5.72380000       1.90360000       0.30950000
H        3.40900000       2.07640000       1.60110000
