18
Properties=species:S:1:pos:R:3 gdb_118948=T pbc="F F F"
O       -0.02430000       1.43420000       0.07110000
C        0.07040000       0.01590000       0.03150000
C       -1.35640000      -0.52220000       0.06650000
C       -1.42960000      -2.04480000       0.01570000
O       -0.76000000      -2.56790000       1.13710000
C       -2.84790000      -2.60800000      -0.29850000
O       -2.38240000      -3.03690000      -1.62020000
C       -1.08610000      -2.68160000      -1.33140000
N       -0.01380000      -2.89080000      -1.94830000
H        0.86840000       1.79070000       0.05940000
H        0.57570000      -0.33040000      -0.88150000
H        0.62810000      -0.37700000       0.89200000
H       -1.84460000      -0.18470000       0.98840000
H       -1.91920000      -0.10030000      -0.77320000
H       -0.36020000      -3.40950000       0.89400000
H       -3.13360000      -3.46690000       0.31340000
H       -3.66720000      -1.89140000      -0.38200000
H       -0.17080000      -3.40670000      -2.81640000
