21
Properties=species:S:1:pos:R:3 gdb_63968=T pbc="F F F"
C        0.13150000       1.44780000       0.20440000
C       -0.02650000      -0.06300000      -0.02110000
C       -1.50210000      -0.45710000      -0.03910000
C        0.74420000      -0.54330000      -1.27700000
C        2.10120000      -0.97420000      -0.74510000
O        3.01330000       0.11850000      -0.46540000
C        3.00830000      -0.18120000       0.95150000
C        1.88070000      -1.21820000       0.76490000
O        0.57540000      -0.79660000       1.07770000
H        1.17770000       1.74940000       0.12460000
H       -0.43630000       2.00540000      -0.54830000
H       -0.24850000       1.72230000       1.19270000
H       -2.02240000       0.02520000      -0.87250000
H       -1.60660000      -1.54090000      -0.14150000
H       -1.99070000      -0.15240000       0.89120000
H        0.24370000      -1.40860000      -1.72530000
H        0.83330000       0.23370000      -2.04020000
H        2.58720000      -1.75590000      -1.33760000
H        3.96750000      -0.60620000       1.27430000
H        2.75950000       0.68840000       1.56800000
H        2.04400000      -2.20890000       1.19470000
