18
Properties=species:S:1:pos:R:3 gdb_62983=T pbc="F F F"
C       -0.14900000       1.58510000      -0.13160000
C        0.02570000       0.07810000      -0.04620000
O       -1.21390000      -0.56750000       0.17660000
C        0.72630000      -0.66040000      -1.18280000
C        2.15880000      -0.32580000      -1.27570000
N        1.74410000      -1.31940000      -0.26880000
C        1.15590000      -0.52560000       0.88840000
C        2.05960000       0.35600000       1.59600000
C        2.79760000       1.11280000       2.17130000
H        0.79290000       2.09710000      -0.33840000
H       -0.86700000       1.83000000      -0.92010000
H       -0.52910000       1.97960000       0.81890000
H       -1.65580000      -0.12330000       0.90860000
H        0.18840000      -1.22580000      -1.93600000
H        2.72020000      -0.77250000      -2.09040000
H        2.53370000       0.63860000      -0.94460000
H        0.69150000      -1.23930000       1.57310000
H        3.45470000       1.76580000       2.69060000
