19
Properties=species:S:1:pos:R:3 gdb_50158=T pbc="F F F"
O        1.40290000      -0.31270000      -0.10330000
C        0.69980000       0.66100000      -0.01920000
C        1.18100000       2.07600000       0.11950000
C        0.57670000       3.11870000      -0.87470000
C        0.44900000       4.10930000       0.30220000
C        1.40890000       5.31290000       0.42630000
C        0.11690000       6.14970000       0.49010000
O       -0.69930000       4.96390000       0.36940000
C        0.55210000       2.91650000       1.27650000
H       -0.41420000       0.57090000      -0.03990000
H        2.27230000       2.08810000       0.13300000
H        1.17780000       3.40700000      -1.74000000
H       -0.41900000       2.81150000      -1.21230000
H        2.02270000       5.32580000       1.32900000
H        2.04320000       5.49230000      -0.44380000
H       -0.06680000       6.67630000       1.43340000
H       -0.04650000       6.84300000      -0.34290000
H       -0.45030000       2.55380000       1.52830000
H        1.13280000       3.03720000       2.19390000
