17
Properties=species:S:1:pos:R:3 gdb_97026=T pbc="F F F"
C        0.24810000       1.37560000      -0.02780000
N        0.02890000      -0.05110000       0.06150000
C       -1.09720000      -0.61480000       0.13520000
C       -1.23520000      -2.13460000       0.22670000
C       -2.71820000      -2.36090000       0.29430000
C       -3.34920000      -1.19100000       0.25090000
N       -2.43890000      -0.10460000       0.15560000
C       -2.91130000       1.19750000       0.09920000
O       -4.08970000       1.47130000       0.12730000
H        1.32420000       1.56220000      -0.07900000
H       -0.20530000       1.81760000      -0.92650000
H       -0.13830000       1.91830000       0.84660000
H       -0.76270000      -2.60510000      -0.64320000
H       -0.69800000      -2.50560000       1.10710000
H       -3.19450000      -3.32710000       0.36680000
H       -4.39960000      -0.94930000       0.27590000
H       -2.12030000       1.95110000       0.02730000
