16
Properties=species:S:1:pos:R:3 gdb_802=T pbc="F F F"
C       -0.65110000       1.32380000      -0.17510000
C        0.13510000       0.04360000       0.05990000
C        1.39890000      -0.20280000      -0.83660000
C        2.17140000      -0.48060000       0.43480000
C        1.04200000      -0.02600000       1.33520000
N        3.31340000      -1.00230000       0.59680000
O        3.61940000      -1.12210000       1.96830000
H        0.00630000       2.20030000      -0.13940000
H       -1.14190000       1.31500000      -1.15450000
H       -1.42720000       1.45820000       0.58620000
H       -0.53330000      -0.82140000       0.02070000
H        1.34790000      -1.01480000      -1.56640000
H        1.73520000       0.70440000      -1.35190000
H        1.22810000       0.95310000       1.79160000
H        0.75370000      -0.72150000       2.12760000
H        4.48610000      -1.54110000       1.94430000
