16
Properties=species:S:1:pos:R:3 gdb_54377=T pbc="F F F"
N        0.15260000       1.22260000       0.46080000
C        0.04080000      -0.00900000      -0.12700000
O        0.95240000      -0.53980000      -0.73570000
C       -1.26460000      -0.67650000       0.04660000
C       -1.57890000      -2.17130000       0.23430000
C       -2.55190000      -1.85470000       1.37270000
C       -2.68950000      -0.46610000       0.70040000
O       -3.33710000      -0.76340000      -0.56890000
C       -2.12220000      -1.40050000      -0.95640000
H        0.97950000       1.75750000       0.24650000
H       -0.66190000       1.72110000       0.77560000
H       -0.87200000      -2.98340000       0.13350000
H       -3.47240000      -2.43960000       1.45960000
H       -2.03480000      -1.79450000       2.33300000
H       -3.10070000       0.40840000       1.20150000
H       -1.94210000      -1.62830000      -1.99770000
