20
Properties=species:S:1:pos:R:3 gdb_114184=T pbc="F F F"
C       -0.02220000       1.72350000      -0.25720000
C       -0.32180000       0.22310000      -0.29370000
C        0.70020000      -0.55840000      -1.11210000
N        2.07430000      -0.64050000      -0.50110000
C        2.04010000      -2.11490000      -0.53340000
C        3.14410000      -3.06790000      -0.91730000
C        2.62540000      -3.04870000       0.49430000
C        0.63030000      -2.09880000      -1.04520000
O       -0.20400000      -2.92670000      -1.27550000
H        0.97100000       1.90480000       0.16480000
H       -0.04860000       2.15930000      -1.26260000
H       -0.75360000       2.25710000       0.35710000
H       -0.33300000      -0.17840000       0.72610000
H       -1.31420000       0.03640000      -0.72170000
H        0.70910000      -0.20360000      -2.15260000
H        2.78590000      -0.26030000      -1.11730000
H        2.88270000      -3.90000000      -1.56270000
H        4.12090000      -2.63270000      -1.10440000
H        3.24410000      -2.59070000       1.25820000
H        1.99860000      -3.86880000       0.82850000
