19
Properties=species:S:1:pos:R:3 gdb_36813=T pbc="F F F"
C       -0.00740000      -1.23400000       0.00420000
C       -0.02510000      -0.03240000       0.00790000
C       -0.01400000       1.42510000       0.01280000
C        1.41110000       2.01180000      -0.00750000
C        1.40520000       3.53900000       0.01410000
N        2.76760000       4.06100000      -0.04220000
C        2.81340000       5.51670000       0.00870000
C        4.19560000       6.00380000      -0.00300000
N        5.28420000       6.38900000       0.01170000
H       -0.00390000      -2.29570000      -0.00010000
H       -0.57460000       1.79720000      -0.85500000
H       -0.55000000       1.79090000       0.89870000
H        1.96470000       1.63050000       0.85930000
H        1.94290000       1.66440000      -0.89840000
H        0.86480000       3.91880000      -0.86380000
H        0.84760000       3.89810000       0.90100000
H        3.31570000       3.67970000       0.72280000
H        2.29970000       5.91690000      -0.87460000
H        2.30640000       5.95610000       0.88820000
