16
Properties=species:S:1:pos:R:3 gdb_43294=T pbc="F F F"
O        0.04630000       0.03540000       0.29460000
C        0.00820000       1.21470000       0.05660000
C       -1.23140000       2.08420000      -0.06550000
C       -0.97610000       3.30640000      -0.57390000
C        0.47100000       3.36750000      -1.00530000
C        1.80970000       3.91940000      -0.37270000
C        1.40350000       3.30710000       0.96930000
C        1.09290000       2.25330000      -0.15740000
N        2.49090000       2.57100000      -0.68300000
H       -2.20140000       1.69960000       0.22700000
H       -1.72440000       4.07360000      -0.74730000
H        0.55700000       3.21880000      -2.08920000
H        2.32970000       4.85740000      -0.57390000
H        2.22580000       3.02830000       1.62650000
H        0.55030000       3.73750000       1.49040000
H        2.50260000       2.41980000      -1.69710000
