23
Properties=species:S:1:pos:R:3 gdb_112645=T pbc="F F F"
C       -0.12560000       1.53580000      -0.05620000
C        0.00910000       0.01020000      -0.04350000
C        0.79960000      -0.52930000       1.15070000
C        0.83650000      -2.07440000       1.25620000
C        2.20230000      -2.37350000       1.83770000
C        2.57120000      -3.74550000       2.30630000
C        2.97230000      -1.28060000       1.84590000
C        2.29930000      -0.09200000       1.20950000
O        2.88170000       0.22170000      -0.06200000
H        0.85600000       2.00970000      -0.14140000
H       -0.73420000       1.87080000      -0.90210000
H       -0.60380000       1.90030000       0.86040000
H       -0.98820000      -0.44880000      -0.03790000
H        0.49500000      -0.31680000      -0.97050000
H        0.33690000      -0.15160000       2.07200000
H        0.02460000      -2.46520000       1.88190000
H        0.71850000      -2.56170000       0.27640000
H        2.46690000      -4.47970000       1.49710000
H        3.59960000      -3.78730000       2.67490000
H        1.90460000      -4.07870000       3.11180000
H        4.00230000      -1.24460000       2.18620000
H        2.41770000       0.83190000       1.78440000
H        3.03490000      -0.61310000      -0.51800000
