17
Properties=species:S:1:pos:R:3 gdb_53429=T pbc="F F F"
C       -0.04460000       1.44650000       0.08280000
C       -0.03060000      -0.00660000       0.01220000
C       -0.00830000      -1.20870000      -0.06030000
C       -0.00980000      -2.66990000      -0.11370000
O        0.69750000      -3.27550000       0.96110000
C       -0.20940000      -3.39330000       2.06350000
C       -1.54360000      -3.80930000       1.43900000
C       -1.46280000      -3.20830000       0.03430000
O       -2.32090000      -3.16770000      -0.80040000
H        0.65600000       1.80980000       0.84240000
H        0.24550000       1.89020000      -0.87570000
H       -1.04040000       1.82450000       0.33820000
H        0.42730000      -3.02880000      -1.05100000
H        0.21230000      -4.12980000       2.74950000
H       -0.30020000      -2.43180000       2.58850000
H       -1.62060000      -4.89740000       1.33790000
H       -2.43430000      -3.45510000       1.96220000
