14
Properties=species:S:1:pos:R:3 gdb_3255=T pbc="F F F"
C       -0.04020000       1.49900000      -0.03980000
O        1.14980000       0.69080000       0.05920000
C       -0.10460000       0.04220000      -0.00030000
C       -0.55520000      -0.95510000       1.09430000
C       -0.89290000      -1.93740000      -0.04020000
N       -1.89610000      -1.25530000      -0.89090000
C       -0.44580000      -0.96740000      -1.08080000
H       -0.28110000       2.07630000       0.85150000
H       -0.16980000       2.02420000      -0.98490000
H        0.30180000      -1.26920000       1.69510000
H       -1.38780000      -0.66320000       1.73820000
H       -0.81360000      -3.01670000      -0.02310000
H       -2.16050000      -1.90950000      -1.62810000
H        0.04860000      -1.11820000      -2.03210000
