12
Properties=species:S:1:pos:R:3 gdb_50793=T pbc="F F F"
N       -0.24620000       1.31010000       0.01230000
C       -0.06340000       0.06750000       0.00330000
O       -1.18080000      -0.73930000       0.00970000
C       -0.98920000      -2.09340000       0.00010000
O        0.08180000      -2.64120000      -0.01360000
C       -2.25570000      -2.77150000       0.00870000
C       -3.28120000      -3.41530000       0.01520000
C       -4.43850000      -4.12380000       0.02260000
C       -5.46740000      -4.75550000       0.02930000
H        0.65180000       1.79200000       0.00620000
H        0.86910000      -0.49590000      -0.00930000
H       -6.37470000      -5.30870000       0.03510000
