18
Properties=species:S:1:pos:R:3 gdb_76452=T pbc="F F F"
C       -0.19100000       1.50380000       0.22450000
C       -0.00070000       0.02310000      -0.01110000
C        0.73790000      -0.55560000      -1.16080000
C        1.39820000       0.25840000      -2.24960000
C        1.36690000      -0.68120000       0.26420000
C        2.57870000       0.10460000       0.64700000
O        2.84620000       1.21680000       0.25880000
C        1.30160000      -1.98170000       0.87680000
N        1.25660000      -3.02600000       1.37360000
H        0.68950000       2.08530000      -0.04380000
H       -1.04100000       1.85590000      -0.36990000
H       -0.41830000       1.69710000       1.27710000
H       -0.82530000      -0.58600000       0.34920000
H        0.36320000      -1.51720000      -1.50100000
H        1.86140000       1.16700000      -1.86810000
H        2.17030000      -0.33130000      -2.75270000
H        0.64760000       0.53270000      -2.99860000
H        3.24960000      -0.43280000       1.34850000
