14
Properties=species:S:1:pos:R:3 gdb_48516=T pbc="F F F"
O       -0.51340000       0.56170000       0.68020000
C        0.02670000       1.11980000      -0.24210000
C        1.26330000       1.93310000      -0.10310000
C        1.82650000       2.66270000       1.14620000
O        2.85750000       1.67210000       1.35340000
C        2.74600000       1.40600000      -0.05210000
C        3.04840000       2.72030000      -0.81320000
C        2.35480000       3.67300000       0.09400000
N        1.61180000       3.07260000      -1.06800000
H       -0.36010000       1.05500000      -1.28270000
H        1.28770000       2.96080000       2.04140000
H        3.12230000       0.43800000      -0.37430000
H        3.84160000       2.97060000      -1.50510000
H        2.55350000       4.73390000       0.16540000
