18
Properties=species:S:1:pos:R:3 gdb_65163=T pbc="F F F"
C        0.07040000       1.48810000      -0.11800000
C        0.09310000      -0.02800000      -0.07470000
C        1.25420000      -0.76450000      -0.71100000
C        1.14760000      -0.69760000       0.78800000
C       -1.21960000      -0.74830000      -0.12450000
O       -2.37600000      -0.12890000       0.43820000
C       -2.39860000      -0.41330000      -0.96300000
C       -2.45560000       0.70130000      -1.88220000
N       -2.54120000       1.55320000      -2.65900000
H        1.07550000       1.88030000       0.06110000
H       -0.26740000       1.86810000      -1.08480000
H       -0.59360000       1.88730000       0.65380000
H        1.06050000      -1.71610000      -1.19560000
H        2.00790000      -0.16310000      -1.20660000
H        1.83010000      -0.05040000       1.32710000
H        0.87990000      -1.60320000       1.32240000
H       -1.14260000      -1.81270000       0.11130000
H       -3.06440000      -1.22710000      -1.24990000
