18
Properties=species:S:1:pos:R:3 gdb_42087=T pbc="F F F"
C        0.11790000       1.41490000      -0.42110000
C        1.27450000       1.91040000       0.48310000
C        2.13580000       0.64560000       0.72210000
C        1.12900000      -0.46410000       0.35820000
O        0.41150000       0.05650000      -0.74380000
C        3.43670000       0.58040000      -0.12840000
O        4.47190000       0.24990000       0.82960000
C        3.86050000       0.29050000       2.03470000
N        2.61500000       0.51430000       2.10890000
H       -0.84520000       1.47960000       0.10600000
H        0.02930000       1.96580000      -1.36120000
H        1.85360000       2.71270000       0.01950000
H        0.90730000       2.27690000       1.44390000
H        1.60050000      -1.40160000       0.05160000
H        0.47580000      -0.65970000       1.22320000
H        3.41790000      -0.19310000      -0.89980000
H        3.70020000       1.53750000      -0.58900000
H        4.51980000       0.11620000       2.87790000
