16
Properties=species:S:1:pos:R:3 gdb_8692=T pbc="F F F"
N       -0.14130000       1.44630000       0.06980000
C       -0.03580000      -0.01860000      -0.03300000
C       -1.46840000      -0.58380000       0.10100000
O       -2.08760000      -0.13910000       1.27720000
C        0.64830000      -0.49530000      -1.34160000
O        1.93510000       0.06290000      -1.49480000
C        0.79910000      -0.49240000       1.08820000
N        1.52200000      -0.89120000       1.89670000
H        0.79050000       1.85140000       0.05340000
H       -0.61320000       1.79040000      -0.76450000
H       -2.02490000      -0.27930000      -0.80350000
H       -1.44530000      -1.67730000       0.12560000
H       -1.83730000       0.79150000       1.37170000
H        0.66540000      -1.59410000      -1.37890000
H        0.05170000      -0.13670000      -2.18750000
H        2.52250000      -0.36170000      -0.85840000
