15
Properties=species:S:1:pos:R:3 gdb_87306=T pbc="F F F"
C        0.10200000       1.50700000      -0.13520000
C        0.08480000       0.01520000       0.06390000
O        1.33600000      -0.67680000       0.11340000
C        0.53650000      -0.69010000       1.29180000
C        1.09250000       0.03970000       2.51160000
C        2.20880000      -0.67600000       3.13010000
N        3.09280000      -1.23220000       3.62210000
C       -0.09070000      -1.96820000       1.59700000
N       -0.61610000      -2.96380000       1.85650000
H        0.90220000       1.99540000       0.42330000
H        0.25610000       1.72570000      -1.19640000
H       -0.85860000       1.94080000       0.16000000
H       -0.67440000      -0.51280000      -0.51450000
H        1.43520000       1.03420000       2.21920000
H        0.29650000       0.16680000       3.25370000
