17
Properties=species:S:1:pos:R:3 gdb_11287=T pbc="F F F"
C       -0.12910000       1.45970000       0.04130000
C        0.11270000      -0.03740000       0.03570000
C        0.73620000      -0.61820000      -1.23880000
C        1.41130000      -1.90930000      -0.73740000
C        1.60590000      -1.63450000       0.78890000
O        1.07920000      -0.34640000       1.05220000
C        0.93360000      -2.65700000       1.61800000
N        0.40740000      -3.45980000       2.26180000
H        0.80080000       1.99810000      -0.16570000
H       -0.86620000       1.72660000      -0.72180000
H       -0.50810000       1.78510000       1.01360000
H       -0.82650000      -0.56810000       0.26200000
H       -0.00090000      -0.80720000      -2.02260000
H        1.47980000       0.08330000      -1.63070000
H        0.77330000      -2.78170000      -0.89060000
H        2.36710000      -2.10640000      -1.22550000
H        2.66290000      -1.62070000       1.07310000
