13
Properties=species:S:1:pos:R:3 gdb_1434=T pbc="F F F"
C        0.09730000       1.37280000       0.09790000
O        0.21590000      -0.05530000       0.05380000
C        0.44240000      -0.56680000      -1.17300000
O        0.54290000       0.09720000      -2.17620000
C        0.54720000      -2.00380000      -1.12250000
C        0.64520000      -3.20410000      -1.15120000
C        0.76480000      -4.65110000      -1.18400000
H        1.01510000       1.84760000      -0.25800000
H       -0.73570000       1.71040000      -0.52400000
H       -0.08110000       1.62010000       1.14420000
H        1.80270000      -4.94820000      -1.36990000
H        0.44950000      -5.09930000      -0.23620000
H        0.14960000      -5.07570000      -1.98440000
