15
Properties=species:S:1:pos:R:3 gdb_129515=T pbc="F F F"
N       -0.15120000       1.42110000       0.11400000
C        0.10050000       0.05230000       0.04470000
O        1.22320000      -0.41130000       0.04600000
N       -1.05090000      -0.70800000       0.01880000
C       -1.08510000      -2.10730000       0.00250000
C       -2.22810000      -2.88380000       0.03990000
N       -1.79990000      -4.17330000      -0.00710000
N       -0.46670000      -4.28740000      -0.07350000
C       -0.01580000      -3.03480000      -0.06820000
H        0.68330000       1.96110000      -0.06050000
H       -0.96330000       1.77340000      -0.37130000
H       -1.92490000      -0.23910000       0.19160000
H       -3.27360000      -2.62560000       0.09410000
H       -2.36330000      -5.00540000       0.00610000
H        1.03660000      -2.81800000      -0.10950000
