22
Properties=species:S:1:pos:R:3 gdb_123093=T pbc="F F F"
C       -0.04900000       1.51500000       0.09440000
C        0.00270000      -0.01230000       0.00470000
C        0.71580000      -0.51690000      -1.25450000
C        0.76820000      -2.04570000      -1.34570000
C        1.47950000      -2.52280000      -2.60130000
O        1.47260000      -3.96010000      -2.58840000
C        2.07180000      -4.54800000      -3.65180000
N        1.95450000      -5.90830000      -3.55760000
O        2.60190000      -3.95470000      -4.56180000
H        0.95860000       1.94530000       0.10760000
H       -0.57910000       1.94440000      -0.76300000
H       -0.56330000       1.84480000       1.00240000
H        0.50810000      -0.41590000       0.89190000
H       -1.01780000      -0.41670000       0.02780000
H        0.21060000      -0.11360000      -2.14300000
H        1.73730000      -0.11270000      -1.27870000
H        1.28130000      -2.45630000      -0.46720000
H       -0.24860000      -2.45730000      -1.33400000
H        0.97930000      -2.16890000      -3.50920000
H        2.51490000      -2.16770000      -2.64010000
H        1.70900000      -6.31040000      -2.66890000
H        2.54650000      -6.44430000      -4.16840000
