20
Properties=species:S:1:pos:R:3 gdb_106973=T pbc="F F F"
C        0.11070000       1.48080000       0.11570000
C       -0.00410000      -0.00510000      -0.00460000
C       -0.03900000      -0.74440000      -1.11850000
C       -0.15220000      -2.22800000      -0.84230000
C       -0.13990000      -2.30100000       0.68680000
C       -0.89150000      -3.39740000       1.38970000
O       -0.39520000      -4.69040000       1.07200000
N        1.13900000      -1.81060000       1.26990000
C       -0.04730000      -0.90590000       1.19300000
H        1.03210000       1.76480000       0.63970000
H        0.11470000       1.96320000      -0.86540000
H       -0.72160000       1.90020000       0.69560000
H        0.03850000      -0.34660000      -2.12500000
H       -1.07870000      -2.65500000      -1.24930000
H        0.67550000      -2.79660000      -1.28070000
H       -0.87720000      -3.21500000       2.47810000
H       -1.94070000      -3.40370000       1.07370000
H        0.55170000      -4.68990000       1.24870000
H        1.20230000      -2.15930000       2.22810000
H       -0.50850000      -0.58430000       2.12270000
