15
Properties=species:S:1:pos:R:3 gdb_54894=T pbc="F F F"
N       -0.08430000       1.37140000       0.12570000
C        0.06670000       0.04540000      -0.23890000
O        1.08100000      -0.42170000      -0.68460000
N       -1.13730000      -0.69380000      -0.09090000
C       -2.43720000      -0.17880000      -0.20750000
N       -3.39370000      -1.01630000      -0.15840000
C       -2.76780000      -2.33070000       0.01330000
C       -1.25450000      -2.10000000       0.05560000
N       -0.27730000      -2.88330000       0.22180000
H        0.78740000       1.88000000       0.11390000
H       -0.69070000       1.59010000       0.90140000
H       -2.56440000       0.88660000      -0.35900000
H       -3.11880000      -2.80540000       0.93650000
H       -3.04620000      -2.99270000      -0.81490000
H       -0.61120000      -3.84150000       0.32850000
