16
Properties=species:S:1:pos:R:3 gdb_16319=T pbc="F F F"
C        0.03970000       1.36540000       0.26920000
O        0.01780000       0.01660000      -0.19090000
C       -1.22760000      -0.54730000      -0.16260000
C       -1.83640000      -1.09900000       1.12870000
C       -1.61940000      -2.03650000      -0.01350000
C       -2.77430000      -1.87080000      -1.01360000
C       -2.29810000      -0.40180000      -1.21000000
O       -2.54090000       0.43850000      -2.02950000
H        1.07660000       1.70040000       0.20570000
H       -0.59010000       2.00550000      -0.35900000
H       -0.30150000       1.43430000       1.31120000
H       -1.10250000      -1.14820000       1.92720000
H       -2.84230000      -0.83780000       1.44690000
H       -0.93950000      -2.87610000       0.02860000
H       -2.65370000      -2.42900000      -1.94620000
H       -3.78420000      -2.02670000      -0.62370000
