19
Properties=species:S:1:pos:R:3 gdb_116122=T pbc="F F F"
O        0.01930000       1.40500000       0.08460000
C        0.03720000      -0.00600000       0.08570000
C       -1.35820000      -0.59560000      -0.08000000
C       -1.40090000      -2.12030000      -0.09700000
N       -2.76380000      -2.64010000      -0.02510000
C       -3.43800000      -2.12700000       1.16600000
C       -3.31380000      -0.63120000       1.39070000
N       -4.22240000       0.02260000       1.97820000
O       -2.13040000      -0.05080000       1.01930000
H       -0.62800000       1.66700000       0.74950000
H        0.66610000      -0.31870000      -0.75470000
H        0.48360000      -0.40750000       1.01010000
H       -1.80060000      -0.20400000      -1.00820000
H       -0.91630000      -2.48730000      -1.00780000
H       -0.83950000      -2.51820000       0.75890000
H       -3.27810000      -2.35650000      -0.85470000
H       -4.49780000      -2.38370000       1.14640000
H       -3.00050000      -2.62590000       2.04250000
H       -3.94570000       1.00200000       2.08110000
