21
Properties=species:S:1:pos:R:3 gdb_114822=T pbc="F F F"
O        0.43760000       0.22990000       0.80630000
C       -0.23190000       0.33210000      -0.45150000
C       -1.54730000      -0.39270000      -0.27980000
C       -2.44740000      -0.77310000      -1.49140000
C       -2.66420000      -2.19820000      -0.88650000
C       -1.78880000      -3.29240000      -1.53380000
C       -0.58060000      -2.83310000      -0.66030000
C       -1.52470000      -1.87770000       0.14350000
O       -1.66130000      -2.15050000       1.50790000
H        1.30690000       0.63330000       0.72780000
H       -0.39570000       1.38450000      -0.73200000
H        0.36510000      -0.13160000      -1.25200000
H       -2.14560000       0.13720000       0.46970000
H       -3.34430000      -0.16290000      -1.61180000
H       -1.91890000      -0.79450000      -2.45020000
H       -3.68220000      -2.44180000      -0.58260000
H       -2.12040000      -4.30300000      -1.28190000
H       -1.66560000      -3.23130000      -2.61920000
H       -0.16180000      -3.61450000      -0.02360000
H        0.23800000      -2.35350000      -1.20410000
H       -0.94990000      -1.67120000       1.95090000
