22
Properties=species:S:1:pos:R:3 gdb_80482=T pbc="F F F"
C       -0.70970000       0.93290000       1.36490000
C        0.23890000      -0.18930000       0.93460000
C        1.02920000       0.14080000      -0.36070000
C        2.42460000      -0.44240000      -0.18660000
C        2.58690000      -0.88110000       1.23940000
C        1.31410000      -0.55240000       2.00820000
O        1.67180000       0.54170000       2.84980000
N        2.60510000      -1.84200000       0.15530000
C        1.62930000      -2.89270000      -0.06610000
H       -0.15580000       1.85050000       1.58200000
H       -1.43080000       1.15120000       0.57100000
H       -1.28500000       0.65950000       2.25800000
H       -0.36960000      -1.08340000       0.76530000
H        0.51910000      -0.23440000      -1.25550000
H        1.12460000       1.22620000      -0.48480000
H        3.23660000       0.00240000      -0.75770000
H        3.51100000      -0.77660000       1.80240000
H        0.97280000      -1.39730000       2.62610000
H        0.93140000       0.72040000       3.43700000
H        0.57220000      -2.60100000       0.00300000
H        1.79210000      -3.30920000      -1.06580000
H        1.80650000      -3.69430000       0.65830000
