17
Properties=species:S:1:pos:R:3 gdb_92191=T pbc="F F F"
O        0.06130000       1.37820000      -0.13390000
C        0.01340000      -0.03100000      -0.00600000
C        0.69750000      -0.55110000       1.29120000
C       -0.38590000      -0.62050000       2.35860000
O       -1.18990000       0.61320000       2.26580000
C       -2.10160000      -0.08770000       1.40490000
C       -1.60790000      -1.46580000       1.82710000
O       -1.43000000      -1.92120000       0.48410000
C       -1.44170000      -0.52350000       0.04380000
H       -0.28570000       1.72510000       0.69930000
H        0.51340000      -0.43720000      -0.88950000
H        1.13270000      -1.54260000       1.13610000
H        1.49740000       0.13740000       1.57780000
H       -0.03800000      -0.78820000       3.37950000
H       -3.11810000       0.30450000       1.41370000
H       -2.08640000      -2.18680000       2.48940000
H       -1.99820000      -0.38330000      -0.88420000
