19
Properties=species:S:1:pos:R:3 gdb_107211=T pbc="F F F"
C       -0.38410000       1.31750000      -0.18470000
O        0.20530000       0.05290000       0.05910000
C        0.82030000      -0.50550000      -1.05810000
C       -0.04640000      -1.13690000      -2.11400000
C        0.81600000      -2.00820000      -1.21340000
C        2.17220000      -2.40130000      -1.74860000
O        2.48160000      -1.86380000      -3.04460000
C        3.00810000      -1.19600000      -1.89010000
C        2.21690000       0.02160000      -1.43520000
H        0.36620000       2.07580000      -0.45070000
H       -1.12910000       1.26830000      -0.99110000
H       -0.87780000       1.62250000       0.74090000
H       -1.11050000      -1.15220000      -1.90410000
H        0.23160000      -1.05880000      -3.15780000
H        0.33750000      -2.64060000      -0.47610000
H        2.57430000      -3.39030000      -1.54940000
H        4.09280000      -1.19960000      -1.81360000
H        2.20100000       0.80530000      -2.19950000
H        2.67890000       0.43790000      -0.53290000
