22
Properties=species:S:1:pos:R:3 gdb_109764=T pbc="F F F"
C        0.42840000       0.72770000      -1.03090000
C       -0.04580000       0.27020000       0.34990000
O       -0.16910000       1.37300000       1.24990000
C       -1.36170000      -0.48420000       0.25850000
C       -1.47260000      -1.97250000       0.12250000
C       -0.27900000      -2.90080000       0.05150000
O       -0.62500000      -4.22940000       0.41760000
N       -1.90320000      -1.28770000       1.34920000
C       -1.16150000      -1.42080000       2.59690000
H        1.33640000       1.32870000      -0.93520000
H        0.63820000      -0.12660000      -1.68240000
H       -0.33790000       1.34100000      -1.52090000
H        0.72960000      -0.35350000       0.80120000
H       -0.88060000       1.93710000       0.92560000
H       -2.12780000       0.11060000      -0.24830000
H       -2.31030000      -2.36030000      -0.45770000
H        0.06410000      -2.96400000      -0.98720000
H        0.56770000      -2.53400000       0.64650000
H       -0.97420000      -4.20400000       1.31450000
H       -0.08570000      -1.62300000       2.50040000
H       -1.26730000      -0.49150000       3.16190000
H       -1.60780000      -2.23210000       3.18290000
