16
Properties=species:S:1:pos:R:3 gdb_127337=T pbc="F F F"
C       -0.07080000       1.47230000       0.03590000
N       -0.04600000       0.01870000      -0.02310000
C       -0.08600000      -0.68310000      -1.17850000
N       -0.06620000      -1.97200000      -1.27730000
C        0.00230000      -2.70160000      -0.08920000
O        0.02660000      -3.91670000      -0.05800000
C        0.04490000      -1.90030000       1.16710000
C        0.11860000      -2.63280000       2.46720000
N        0.02130000      -0.60470000       1.18380000
H        0.83490000       1.84230000       0.52300000
H       -0.12490000       1.86850000      -0.97900000
H       -0.94120000       1.80880000       0.60470000
H       -0.13900000      -0.07330000      -2.08010000
H       -0.73930000      -3.30600000       2.56430000
H        1.00650000      -3.27300000       2.48390000
H        0.14390000      -1.93420000       3.30450000
