13
Properties=species:S:1:pos:R:3 gdb_129106=T pbc="F F F"
N       -0.22550000       1.23160000       0.00790000
C        0.00780000      -0.01410000       0.00050000
C       -1.10220000      -1.06580000       0.00020000
C       -0.31260000      -2.34880000      -0.00990000
C        1.13150000      -2.09420000      -0.01520000
N        1.22110000      -0.69430000      -0.00850000
O        2.06530000      -2.85980000      -0.02330000
N       -1.20730000      -4.60660000      -0.01740000
N       -0.79510000      -3.54970000      -0.01380000
H        0.63380000       1.78320000       0.00680000
H       -1.73150000      -0.93870000       0.88690000
H       -1.73940000      -0.92980000      -0.87960000
H        2.12200000      -0.24080000      -0.01040000
