18
Properties=species:S:1:pos:R:3 gdb_10215=T pbc="F F F"
C       -0.01090000       1.46990000       0.08330000
O        0.10300000       0.06740000      -0.00900000
C        0.64120000      -0.52100000       1.15380000
C        0.66630000      -2.04100000       0.95920000
C        1.44330000      -2.77060000       2.06750000
O        1.58400000      -4.14890000       1.81090000
C       -0.74500000      -2.57870000       0.81220000
O       -1.13140000      -3.62080000       1.29230000
H        0.96920000       1.94660000       0.23820000
H       -0.43250000       1.82490000      -0.85970000
H       -0.67500000       1.77130000       0.90810000
H        1.66460000      -0.15420000       1.33950000
H        0.03780000      -0.25110000       2.03830000
H        1.16400000      -2.23180000      -0.00360000
H        2.45480000      -2.35520000       2.13450000
H        0.94980000      -2.58530000       3.03600000
H        0.68350000      -4.49950000       1.78530000
H       -1.43030000      -1.94110000       0.21830000
