16
Properties=species:S:1:pos:R:3 gdb_98012=T pbc="F F F"
C       -0.02360000       1.40950000       0.30440000
N       -0.15230000      -0.03310000       0.22710000
C       -1.18860000      -0.64030000      -0.41420000
O       -2.10060000      -0.05730000      -0.97200000
C       -1.12220000      -2.09810000      -0.37520000
C       -1.11320000      -3.30600000      -0.38310000
C       -1.10150000      -4.76200000      -0.40030000
C       -2.30930000      -5.42720000       0.22130000
O       -0.17580000      -5.37240000      -0.88810000
H        0.85550000       1.76100000      -0.24700000
H       -0.91850000       1.84340000      -0.14220000
H        0.05730000       1.73930000       1.34520000
H        0.56930000      -0.61770000       0.61710000
H       -3.21780000      -5.11940000      -0.30760000
H       -2.19460000      -6.51080000       0.17180000
H       -2.42270000      -5.10650000       1.26250000
