23
Properties=species:S:1:pos:R:3 gdb_103544=T pbc="F F F"
C       -0.30390000       1.58070000       0.14100000
C       -0.27520000       0.05180000       0.25750000
C        0.78620000      -0.50040000       1.23340000
O        2.10110000      -0.20360000       0.74850000
C        0.55370000      -0.01160000       2.65490000
C        0.05220000      -0.96280000       3.43870000
C       -0.12130000      -2.26510000       2.69640000
C        0.72700000      -2.04830000       1.41980000
C        0.30330000      -2.87920000       0.21140000
H        0.64880000       1.98300000      -0.22420000
H       -1.07060000       1.89860000      -0.57170000
H       -0.52690000       2.05820000       1.10020000
H       -1.26320000      -0.30020000       0.57780000
H       -0.08620000      -0.38040000      -0.73110000
H        2.17220000       0.74900000       0.63040000
H        0.75440000       1.01190000       2.95410000
H       -0.22590000      -0.83640000       4.47990000
H        0.20660000      -3.13790000       3.27280000
H       -1.17960000      -2.44100000       2.45100000
H        1.76000000      -2.31400000       1.67120000
H       -0.73680000      -2.69280000      -0.07600000
H        0.93970000      -2.66810000      -0.65370000
H        0.39300000      -3.94770000       0.43470000
