19
Properties=species:S:1:pos:R:3 gdb_102894=T pbc="F F F"
C       -0.20490000       1.39850000      -0.10840000
O        0.19330000       0.05210000       0.05240000
C        0.70800000      -0.54600000      -1.12670000
C        1.30220000      -1.90360000      -0.72830000
C        2.43690000      -1.75590000       0.30410000
C        3.02310000      -3.03720000       0.67510000
C        3.48910000      -4.10670000       0.96470000
C       -0.31960000      -0.70000000      -2.16570000
C       -1.16340000      -0.83450000      -3.01130000
H        0.63520000       2.03060000      -0.43560000
H       -1.02060000       1.49670000      -0.83670000
H       -0.55100000       1.74530000       0.86770000
H        1.51470000       0.09110000      -1.53290000
H        0.50340000      -2.52740000      -0.31700000
H        1.67430000      -2.40150000      -1.62810000
H        3.21900000      -1.10080000      -0.10330000
H        2.04460000      -1.25020000       1.19240000
H        3.90870000      -5.04510000       1.22980000
H       -1.90730000      -0.95360000      -3.76010000
