20
Properties=species:S:1:pos:R:3 gdb_94548=T pbc="F F F"
C        0.20400000       1.20760000      -0.98060000
C       -0.04800000       0.05520000      -0.03310000
C        1.03730000      -0.90090000       0.30080000
N        0.59730000       0.09260000       1.30400000
C       -1.48160000      -0.44400000      -0.01270000
O       -1.64110000      -1.74000000       0.59800000
C       -2.53560000      -1.23030000       1.61170000
C       -2.44400000       0.20360000       1.04040000
O       -1.93120000       1.20570000       1.86620000
H        1.25600000       1.51020000      -0.96110000
H       -0.04770000       0.93610000      -2.01140000
H       -0.40630000       2.07340000      -0.70060000
H        0.77690000      -1.92510000       0.54060000
H        2.00810000      -0.75390000      -0.16450000
H        1.26260000       0.86200000       1.33190000
H       -1.87090000      -0.44950000      -1.04040000
H       -3.51900000      -1.71360000       1.56810000
H       -2.11900000      -1.33470000       2.62060000
H       -3.37740000       0.58380000       0.61960000
H       -1.06080000       0.88860000       2.15770000
