25
Properties=species:S:1:pos:R:3 gdb_88818=T pbc="F F F"
C        0.13390000       1.61330000      -0.30220000
C        0.01440000       0.12060000      -0.08080000
C        1.22240000      -0.78080000      -0.15110000
C        0.50940000      -0.57960000       1.17010000
C        1.17060000       0.14590000       2.31000000
C        0.29870000       0.68290000       3.48180000
C        1.42720000       0.27550000       4.46530000
C        2.02600000      -0.64860000       3.36250000
C        1.67040000      -2.12320000       3.53460000
H        1.07540000       2.01270000       0.08520000
H        0.09800000       1.84820000      -1.37200000
H       -0.68320000       2.15820000       0.18430000
H       -0.89810000      -0.30220000      -0.49480000
H        1.14140000      -1.73850000      -0.65420000
H        2.19090000      -0.30240000      -0.26720000
H       -0.11320000      -1.41280000       1.48730000
H        1.78760000       0.96180000       1.91990000
H        0.00440000       1.73510000       3.44920000
H       -0.60510000       0.08130000       3.62060000
H        2.08670000       1.11430000       4.70490000
H        1.12920000      -0.20660000       5.40070000
H        3.10760000      -0.55830000       3.21940000
H        0.60030000      -2.26740000       3.72180000
H        1.93420000      -2.70660000       2.64630000
H        2.21030000      -2.54830000       4.38790000
