21
Properties=species:S:1:pos:R:3 gdb_103072=T pbc="F F F"
C       -0.08080000       1.49670000      -0.31540000
C       -0.00340000      -0.00290000      -0.13940000
C        1.33660000      -0.72290000      -0.04140000
C        1.57630000      -2.00760000      -0.79760000
O        2.49860000       0.05430000       0.00270000
C        0.43900000      -0.63030000       1.18070000
O        0.98900000       0.22490000       2.15740000
C       -0.30890000      -1.81390000       1.75090000
O        0.47820000      -2.63220000       2.59580000
H        0.79260000       1.99360000       0.11080000
H       -0.11440000       1.75410000      -1.37870000
H       -0.98050000       1.91420000       0.15180000
H       -0.78560000      -0.55840000      -0.65290000
H        1.91980000      -1.77550000      -1.81100000
H        2.35800000      -2.60570000      -0.31630000
H        0.66880000      -2.61040000      -0.88020000
H        2.51450000       0.46430000       0.87910000
H        0.30890000       0.83670000       2.45890000
H       -1.13540000      -1.45410000       2.37710000
H       -0.76090000      -2.38930000       0.92840000
H        1.26300000      -2.89300000       2.10290000
