12
Properties=species:S:1:pos:R:3 gdb_130084=T pbc="F F F"
N        0.05010000       1.29710000       0.16580000
C       -0.05380000      -0.05020000       0.06190000
N       -1.14730000      -0.75570000       0.02840000
N       -0.63150000      -2.04900000       0.01040000
C       -0.96760000      -3.37280000      -0.03510000
N        0.14090000      -4.08510000      -0.05410000
N        1.24850000      -3.23310000      -0.02480000
C        0.71640000      -2.05030000       0.01320000
O        1.12850000      -0.74730000       0.05060000
H        0.89750000       1.70520000      -0.19820000
H       -0.79720000       1.80660000      -0.03300000
H       -1.97480000      -3.75220000      -0.04940000
