15
Properties=species:S:1:pos:R:3 gdb_44902=T pbc="F F F"
O       -0.01480000       0.06090000       0.06040000
C        0.05350000       1.25000000       0.02210000
O       -1.03830000       2.09510000       0.05220000
C       -0.40970000       3.40320000      -0.02040000
C        0.64700000       3.21300000      -1.12770000
C        1.22410000       2.21920000      -0.06130000
C        0.73530000       3.26010000       1.03610000
C        1.58780000       4.40820000       1.24750000
C        2.29280000       5.36320000       1.44010000
H       -1.16640000       4.18270000       0.00600000
H        0.30230000       2.80220000      -2.07800000
H        1.28480000       4.08430000      -1.27240000
H        2.22420000       1.79800000      -0.08240000
H        0.41410000       2.82590000       1.98750000
H        2.91550000       6.20580000       1.61410000
