20
Properties=species:S:1:pos:R:3 gdb_30204=T pbc="F F F"
C       -0.08640000       1.53610000       0.00760000
C        0.10430000       0.02140000       0.00870000
C        0.92590000      -0.52350000      -1.20370000
C        1.52190000      -1.78470000      -0.64760000
C        2.13640000      -2.94380000      -1.04970000
N        2.44530000      -3.64690000       0.09640000
C        2.03400000      -2.95500000       1.21680000
C        1.45770000      -1.79170000       0.77240000
C        0.81340000      -0.53580000       1.28490000
H        0.87970000       2.05270000       0.05380000
H       -0.60070000       1.87350000      -0.89900000
H       -0.68060000       1.86470000       0.86730000
H       -0.88260000      -0.45670000      -0.03830000
H        0.29570000      -0.66800000      -2.08780000
H        1.70590000       0.19820000      -1.48790000
H        2.38040000      -3.34130000      -2.02190000
H        2.87170000      -4.55640000       0.11120000
H        2.18940000      -3.36230000       2.20320000
H        1.56430000       0.18270000       1.64550000
H        0.10610000      -0.68870000       2.10710000
