21
Properties=species:S:1:pos:R:3 gdb_94902=T pbc="F F F"
O        0.08360000       1.44130000      -0.01910000
C        0.07210000       0.02000000       0.02240000
C        0.57010000      -0.52460000       1.38730000
C       -0.68510000      -0.56940000       2.32150000
C       -1.83160000      -0.36240000       1.36620000
C       -3.07490000       0.11090000       1.42750000
C       -3.68160000       0.24120000       0.04290000
C       -2.44790000       0.13730000      -0.90480000
C       -1.36190000      -0.55760000      -0.05970000
H       -0.56920000       1.75700000       0.61780000
H        0.71740000      -0.29340000      -0.80240000
H        0.97680000      -1.53260000       1.25420000
H        1.37400000       0.10410000       1.77740000
H       -0.75050000      -1.53240000       2.84060000
H       -0.65700000       0.19860000       3.10080000
H       -3.61570000       0.37040000       2.33180000
H       -4.40480000      -0.56470000      -0.14850000
H       -4.23320000       1.17950000      -0.08810000
H       -2.67560000      -0.39190000      -1.83320000
H       -2.09970000       1.13940000      -1.17310000
H       -1.27910000      -1.62890000      -0.29850000
