17
Properties=species:S:1:pos:R:3 gdb_55322=T pbc="F F F"
C       -0.08000000       1.48770000      -0.42230000
C        0.05240000       0.03570000      -0.00970000
O        1.10460000      -0.48420000       0.26630000
C       -1.26080000      -0.75230000       0.05280000
O       -1.07000000      -2.16160000       0.17620000
C       -1.46440000      -2.15650000       1.55990000
C       -1.99010000      -0.69860000       1.44600000
C       -1.59660000       0.27400000       2.44100000
C       -1.26660000       1.07690000       3.27320000
H        0.88700000       1.98440000      -0.33760000
H       -0.43690000       1.55430000      -1.45680000
H       -0.81550000       1.99660000       0.21020000
H       -1.89660000      -0.49440000      -0.80370000
H       -2.21290000      -2.92320000       1.78210000
H       -0.60480000      -2.26080000       2.23010000
H       -3.07350000      -0.67800000       1.30250000
H       -0.96940000       1.78000000       4.01180000
