16
Properties=species:S:1:pos:R:3 gdb_27740=T pbc="F F F"
C       -0.01720000       1.45230000       0.03090000
C        0.01160000      -0.03740000      -0.02300000
N        0.01990000      -0.75370000      -1.14490000
C        0.04860000      -2.05950000      -0.75290000
N        0.12040000      -3.05900000      -1.69280000
C        0.05620000      -2.15550000       0.64170000
N        0.03120000      -0.82600000       1.06640000
C        0.08550000      -3.23220000       1.57880000
O        0.08630000      -3.08280000       2.79300000
H        0.87090000       1.85150000       0.53290000
H       -0.04710000       1.84220000      -0.98660000
H       -0.89610000       1.81730000       0.57340000
H       -0.16910000      -2.76490000      -2.61400000
H       -0.23650000      -3.96260000      -1.42500000
H        0.02920000      -0.56650000       2.03990000
H        0.11000000      -4.24750000       1.12540000
