19
Properties=species:S:1:pos:R:3 gdb_118810=T pbc="F F F"
C       -0.13640000       1.33650000       0.11180000
O       -0.20200000      -0.05340000      -0.11150000
C        0.74270000      -0.51230000      -1.06430000
C        0.66050000      -2.01690000      -1.04810000
O        0.88740000      -2.56240000       0.21760000
C       -0.28310000      -2.73930000      -1.96860000
C        1.23150000      -2.83460000      -2.18320000
C        1.85840000      -2.21890000      -3.31530000
C        2.38660000      -1.70510000      -4.26670000
H        0.85650000       1.64370000       0.47490000
H       -0.35900000       1.90520000      -0.80390000
H       -0.88390000       1.58160000       0.87000000
H        0.52850000      -0.11140000      -2.06480000
H        1.75730000      -0.19110000      -0.77840000
H        0.32180000      -2.06010000       0.81890000
H       -0.76940000      -3.62600000      -1.58010000
H       -0.85160000      -2.16510000      -2.69090000
H        1.68100000      -3.76550000      -1.85010000
H        2.85590000      -1.25630000      -5.10660000
