17
Properties=species:S:1:pos:R:3 gdb_15879=T pbc="F F F"
C       -0.25420000       1.45890000      -0.20540000
N       -0.20470000       0.03140000       0.02880000
C       -1.32810000      -0.62130000       0.72920000
C       -0.30980000      -1.59690000       1.36640000
O       -0.16410000      -2.83270000       0.71520000
C        0.76090000      -0.50050000       1.00630000
C        2.07910000      -0.97920000       0.44230000
O        3.10050000      -1.04540000       1.07480000
H        0.68800000       1.79690000      -0.64890000
H       -1.05960000       1.69050000      -0.90990000
H       -0.42760000       2.04010000       0.71900000
H       -1.81190000       0.02410000       1.48060000
H       -2.09820000      -1.05780000       0.08260000
H       -0.41720000      -1.81500000       2.42820000
H       -0.19180000      -2.67390000      -0.23540000
H        0.95230000       0.15810000       1.86840000
H        2.02680000      -1.28590000      -0.62730000
