19
Properties=species:S:1:pos:R:3 gdb_111396=T pbc="F F F"
C       -0.05410000       1.36040000       0.26450000
O       -0.04030000       0.01810000      -0.19890000
C       -1.25560000      -0.64610000      -0.04460000
C       -1.35030000      -1.97880000      -0.76950000
C       -0.40310000      -2.97900000      -0.17450000
C       -1.69840000      -2.69800000       0.53840000
C       -1.57870000      -1.39710000       1.33360000
C       -0.55270000      -1.34750000       2.44080000
O       -0.25220000      -0.34680000       3.04380000
H        0.93810000       1.77300000       0.06920000
H       -0.80050000       1.95710000      -0.28200000
H       -0.26380000       1.41270000       1.33840000
H       -2.09500000       0.01650000      -0.29590000
H       -1.77860000      -2.11040000      -1.75490000
H       -0.35680000      -3.93050000      -0.69330000
H        0.54710000      -2.65080000       0.23660000
H       -2.44730000      -3.46310000       0.69720000
H       -2.52700000      -1.03170000       1.73860000
H       -0.07630000      -2.32420000       2.68570000
