19
Properties=species:S:1:pos:R:3 gdb_83894=T pbc="F F F"
C       -0.17220000       1.55360000      -0.01860000
C        0.03410000       0.05340000       0.02270000
C        1.34390000      -0.64620000      -0.22850000
C        2.63030000       0.14220000      -0.07780000
O        2.52200000       0.85820000       1.15040000
C        1.68270000       0.13270000       2.04010000
C        0.72520000      -0.68340000       1.17000000
C        0.13570000      -1.85690000       1.73650000
C       -0.35750000      -2.83380000       2.23750000
H        0.69050000       2.09750000       0.36750000
H       -0.34950000       1.88060000      -1.04920000
H       -1.05150000       1.83570000       0.57020000
H       -0.81580000      -0.50880000      -0.35560000
H        1.35920000      -1.54010000      -0.84070000
H        3.48960000      -0.54660000      -0.06330000
H        2.79840000       0.88280000      -0.86740000
H        2.26290000      -0.55280000       2.67540000
H        1.18130000       0.86190000       2.68480000
H       -0.79490000      -3.69730000       2.67340000
