12
Properties=species:S:1:pos:R:3 gdb_130554=T pbc="F F F"
O        0.02200000      -0.05130000       0.00360000
C       -0.00430000       1.15420000       0.00730000
C        1.16070000       1.99780000       0.00130000
C        2.18890000       2.61940000      -0.00440000
N       -1.24310000       1.84390000       0.01840000
C       -2.49080000       1.28900000       0.02590000
C       -3.32910000       2.36420000       0.03520000
N       -2.57560000       3.51630000       0.03310000
N       -1.32520000       3.21050000       0.02310000
H        3.08900000       3.18540000      -0.00930000
H       -2.63410000       0.22320000       0.02380000
H       -4.40600000       2.39740000       0.04320000
