17
Properties=species:S:1:pos:R:3 gdb_14068=T pbc="F F F"
C       -0.08380000       1.49040000      -0.07460000
C        0.04170000      -0.01540000      -0.01950000
C        1.37830000      -0.68430000      -0.19510000
C        0.71410000      -0.67820000       1.15510000
C        1.17000000      -0.11610000       2.49770000
O        0.64540000      -1.31940000       3.15000000
C        0.23210000      -1.84880000       1.93740000
N       -0.33990000      -2.93050000       1.66250000
H        0.80440000       1.97990000       0.33910000
H       -0.19820000       1.83360000      -1.10820000
H       -0.95350000       1.84060000       0.49170000
H       -0.81200000      -0.56680000      -0.40470000
H        1.42400000      -1.63660000      -0.71200000
H        2.25120000      -0.05030000      -0.31990000
H        2.24850000      -0.02770000       2.65450000
H        0.65510000       0.77840000       2.85910000
H       -0.51420000      -3.48860000       2.49880000
