21
Properties=species:S:1:pos:R:3 gdb_69649=T pbc="F F F"
C       -0.05410000       1.55400000      -0.08820000
C        0.02720000       0.05690000      -0.02100000
C       -0.87500000      -0.79230000       0.82530000
C        0.61200000      -0.85090000       1.07550000
C        1.27830000      -1.72030000       0.02180000
C        2.79830000      -1.98340000       0.06760000
C        2.40100000      -3.47120000       0.07230000
O        0.99990000      -3.13910000       0.02020000
C        0.65400000      -0.83890000      -1.10230000
H        0.90960000       1.99580000      -0.36760000
H       -0.79300000       1.87860000      -0.83110000
H       -0.35040000       1.97850000       0.87680000
H       -1.44040000      -0.26130000       1.58530000
H       -1.38770000      -1.65530000       0.40780000
H        1.04140000      -0.59060000       2.03740000
H        3.35360000      -1.64550000      -0.80960000
H        3.30040000      -1.62710000       0.96960000
H        2.71760000      -4.05490000      -0.80070000
H        2.65650000      -4.02910000       0.98140000
H       -0.04460000      -1.35280000      -1.77040000
H        1.41900000      -0.33590000      -1.70160000
