19
Properties=species:S:1:pos:R:3 gdb_99629=T pbc="F F F"
C       -0.02320000       1.51410000      -0.33210000
C       -0.03910000       0.05310000       0.04940000
N        1.22260000      -0.70430000      -0.01470000
C        0.55420000      -0.54540000       1.27910000
C        1.29900000       0.16490000       2.40440000
C        2.12280000      -0.86440000       3.23080000
O        2.76780000      -0.28760000       4.33880000
C        2.21720000       1.22320000       1.97950000
N        3.00130000       2.03930000       1.74200000
H        0.90740000       2.00200000      -0.04290000
H       -0.13230000       1.61550000      -1.41710000
H       -0.86000000       2.04270000       0.13750000
H       -0.92910000      -0.47430000      -0.29610000
H        1.08440000      -1.63650000      -0.39280000
H        0.01360000      -1.40700000       1.67270000
H        0.56950000       0.62120000       3.08610000
H        1.43030000      -1.61190000       3.63000000
H        2.82360000      -1.37430000       2.55440000
H        3.43960000       0.32220000       4.01140000
