23
Properties=species:S:1:pos:R:3 gdb_59111=T pbc="F F F"
C        0.21740000       1.62420000      -0.26300000
C        0.08630000       0.17130000       0.21480000
C        0.57320000       0.00320000       1.66080000
C       -1.35100000      -0.32400000       0.07600000
C       -2.01780000      -0.44660000      -1.32230000
O       -1.01230000      -0.82020000      -2.26750000
C       -2.79350000      -1.68150000      -0.79310000
C       -1.69830000      -1.83480000       0.30330000
O       -0.66320000      -2.72990000      -0.04380000
H        1.25180000       1.97290000      -0.17390000
H       -0.08010000       1.72420000      -1.31110000
H       -0.41010000       2.29680000       0.33490000
H        0.72050000      -0.45060000      -0.42610000
H       -0.04150000       0.58770000       2.35680000
H        0.53280000      -1.04580000       1.96740000
H        1.60790000       0.34590000       1.76700000
H       -2.01180000       0.28050000       0.71080000
H       -2.59580000       0.40830000      -1.69360000
H       -1.45510000      -1.09980000      -3.07580000
H       -3.76740000      -1.40900000      -0.37630000
H       -2.91460000      -2.52410000      -1.48030000
H       -2.02940000      -2.12440000       1.30310000
H       -0.37440000      -2.48200000      -0.93220000
