17
Properties=species:S:1:pos:R:3 gdb_30993=T pbc="F F F"
N       -0.90050000       0.79120000       0.15990000
C        0.41890000       0.21500000      -0.14410000
C        1.00220000      -0.38750000       1.08950000
C        0.40630000      -0.92550000       2.16640000
N       -0.91220000      -1.17940000       2.49680000
O        1.35680000      -1.42260000       3.04000000
C        2.61050000      -1.16990000       2.50190000
N        3.72960000      -1.38800000       3.05600000
N        2.39110000      -0.63490000       1.25210000
H       -0.78280000       1.63700000       0.70980000
H       -1.36790000       1.05960000      -0.69980000
H        0.27280000      -0.54410000      -0.92640000
H        1.13310000       0.94590000      -0.56370000
H       -1.51990000      -0.65090000       1.87690000
H       -1.11410000      -0.98390000       3.47120000
H        3.59840000      -1.79500000       3.97790000
H        3.11450000      -0.08350000       0.82190000
