16
Properties=species:S:1:pos:R:3 gdb_33852=T pbc="F F F"
C       -0.01020000      -1.19210000       0.02180000
C        0.04250000       0.00860000      -0.01220000
C        0.07000000       1.44220000      -0.08230000
C       -0.96210000       2.18530000      -0.94260000
C       -0.27640000       3.47830000      -1.38420000
N        0.05340000       4.41730000      -0.29930000
C        1.10430000       3.52090000      -0.82430000
C        1.30550000       2.26860000       0.00160000
O        0.43800000       2.14040000       1.12060000
H       -0.04840000      -2.25260000       0.06390000
H       -1.20940000       1.57430000      -1.81590000
H       -1.88210000       2.36810000      -0.38040000
H       -0.50550000       3.87790000      -2.36720000
H        0.18820000       5.34540000      -0.69500000
H        1.94730000       3.93100000      -1.36880000
H        2.29460000       1.83280000       0.11130000
