21
Properties=species:S:1:pos:R:3 gdb_88560=T pbc="F F F"
C       -0.89990000       0.92990000       0.33030000
N        0.03230000      -0.16750000       0.09060000
C        1.34990000       0.13900000      -0.44060000
C        1.19280000      -0.39020000       0.95100000
C        1.58730000       0.41930000       2.14190000
C        2.64750000      -0.05860000       3.15930000
C        1.86040000       0.67520000       4.29430000
C        0.83900000       1.13020000       3.24720000
N        1.48960000       1.87330000       2.16850000
H       -0.42590000       1.86560000       0.64840000
H       -1.45420000       1.10840000      -0.59710000
H       -1.62320000       0.62220000       1.09310000
H        1.70870000      -0.49980000      -1.24460000
H        1.63490000       1.18750000      -0.51730000
H        1.38500000      -1.45120000       1.11220000
H        2.65230000      -1.14280000       3.29660000
H        3.67250000       0.27120000       2.95790000
H        1.44910000      -0.02110000       5.02870000
H        2.37910000       1.47870000       4.82850000
H       -0.22420000       1.28110000       3.39450000
H        2.35280000       2.32770000       2.46450000
