14
Properties=species:S:1:pos:R:3 gdb_20315=T pbc="F F F"
C       -0.17370000      -1.18360000      -0.50780000
C       -0.08370000      -0.04100000      -0.14750000
C        0.02700000       1.35440000       0.27430000
C        1.42080000       1.91590000       0.14920000
C        2.12280000       2.63940000       1.09140000
N        3.31270000       2.95720000       0.52500000
N        3.44420000       2.48630000      -0.72880000
C        2.29790000       1.85460000      -0.95950000
H       -0.25110000      -2.19550000      -0.81980000
H       -0.67690000       1.95600000      -0.31790000
H       -0.30980000       1.44640000       1.31400000
H        1.86970000       2.94130000       2.09580000
H        4.07150000       3.47540000       0.93340000
H        2.13440000       1.36410000      -1.90780000
