19
Properties=species:S:1:pos:R:3 gdb_59926=T pbc="F F F"
C       -0.04680000       1.56290000       0.02660000
C        0.02240000       0.03570000       0.16830000
C        0.78790000      -0.36070000       1.43870000
C       -1.40260000      -0.54190000       0.13260000
C       -1.46930000      -2.09810000       0.12900000
C       -2.86410000      -2.55870000       0.16210000
N       -3.96930000      -2.88790000       0.21480000
C       -0.76340000      -2.67200000      -1.02620000
N       -0.18100000      -3.09690000      -1.92800000
H        0.95780000       1.99580000       0.00660000
H       -0.55780000       1.85690000      -0.89570000
H       -0.58640000       2.01320000       0.86800000
H        0.56740000      -0.35920000      -0.69910000
H        0.25850000      -0.02560000       2.33880000
H        0.94060000      -1.44190000       1.51870000
H        1.77970000       0.10090000       1.44700000
H       -1.97040000      -0.20050000       1.00540000
H       -1.93130000      -0.18140000      -0.75500000
H       -0.97980000      -2.48000000       1.03320000
