16
Properties=species:S:1:pos:R:3 gdb_31215=T pbc="F F F"
O       -0.10270000       1.38410000       0.40920000
C       -0.01180000       0.06300000      -0.12130000
C       -1.36620000      -0.55490000      -0.03150000
C       -1.76630000      -1.88280000       0.04170000
C       -3.20050000      -1.88270000       0.05410000
C       -3.61240000      -0.57660000      -0.00540000
N       -2.49050000       0.21450000      -0.06980000
C       -0.90510000      -3.00250000       0.08970000
C       -0.16880000      -3.95650000       0.13250000
H        0.71130000       1.84840000       0.19440000
H        0.33010000       0.09510000      -1.16930000
H        0.70560000      -0.55830000       0.43300000
H       -3.83080000      -2.75600000       0.10590000
H       -4.59920000      -0.14330000       0.00190000
H       -2.45520000       1.21980000      -0.04750000
H        0.47540000      -4.79900000       0.17090000
