16
Properties=species:S:1:pos:R:3 gdb_16348=T pbc="F F F"
O       -0.02400000       1.44950000       0.31720000
C        0.01710000       0.06120000       0.03530000
C       -1.34300000      -0.50680000      -0.22060000
O       -2.21920000      -0.62710000       0.92670000
C       -1.96000000      -1.79890000       0.13120000
C       -2.92000000      -1.75100000      -1.05630000
C       -2.31190000      -0.33710000      -1.41520000
O       -3.15900000       0.77340000      -1.38410000
H       -0.59690000       1.56530000       1.08320000
H        0.64050000      -0.04920000      -0.85820000
H        0.49090000      -0.50810000       0.85010000
H       -1.53500000      -2.65230000       0.64700000
H       -2.71380000      -2.50590000      -1.81890000
H       -3.98300000      -1.75920000      -0.80400000
H       -1.80580000      -0.33390000      -2.38360000
H       -3.49790000       0.82510000      -0.48120000
