22
Properties=species:S:1:pos:R:3 gdb_90087=T pbc="F F F"
C       -0.15510000       1.54210000       0.12520000
C        0.06710000       0.03860000       0.05280000
C        1.17810000      -0.58540000      -0.82290000
C        2.24420000      -0.10580000       0.26800000
C        1.03270000      -0.70480000       1.05440000
C        0.38420000      -1.68480000       2.06240000
N       -0.06290000      -2.46920000       0.84760000
C       -0.11580000      -3.91050000       0.95010000
C        1.07110000      -1.87180000       0.08470000
H        0.76090000       2.12370000       0.25680000
H       -0.63950000       1.89710000      -0.79180000
H       -0.82370000       1.78840000       0.95790000
H       -0.89020000      -0.47410000      -0.05300000
H        1.30110000      -0.49730000      -1.90780000
H        3.17540000      -0.67600000       0.31420000
H        2.44240000       0.96520000       0.32450000
H        1.11480000      -2.23900000       2.67190000
H       -0.43070000      -1.32000000       2.69640000
H       -0.89240000      -4.20600000       1.66380000
H       -0.37550000      -4.33810000      -0.02400000
H        0.83920000      -4.36310000       1.28050000
H        1.96580000      -2.51070000       0.10060000
