20
Properties=species:S:1:pos:R:3 gdb_88875=T pbc="F F F"
C        0.58690000       1.44490000      -0.42190000
N        0.15860000       0.10840000      -0.01830000
C        1.18510000      -0.84460000       0.39370000
C        0.22900000      -0.27790000       1.38650000
C        0.68870000       0.64440000       2.50330000
C        0.76380000      -0.09090000       3.86700000
O        1.93920000       0.42620000       4.46850000
C        2.80600000       0.65640000       3.39180000
O        2.01440000       1.16090000       2.33250000
H        1.45710000       1.82780000       0.12620000
H        0.82720000       1.42030000      -1.48940000
H       -0.24680000       2.14190000      -0.28500000
H        1.06950000      -1.86150000       0.02710000
H        2.21010000      -0.48580000       0.45750000
H       -0.61860000      -0.89100000       1.69890000
H        0.01420000       1.50780000       2.56890000
H       -0.08250000       0.11750000       4.52400000
H        0.84450000      -1.17850000       3.71540000
H        3.54860000       1.40560000       3.67960000
H        3.30510000      -0.27990000       3.08190000
