17
Properties=species:S:1:pos:R:3 gdb_7812=T pbc="F F F"
O       -0.10700000       1.44800000       0.04540000
C        0.04140000       0.03670000       0.00660000
C        0.78110000      -0.50900000       1.23990000
N        0.82810000      -1.96870000       1.29140000
C       -0.50770000      -2.57510000       1.26170000
C       -1.37430000      -2.07160000       0.10530000
O       -2.00360000      -2.81380000      -0.61150000
C       -1.37000000      -0.55790000      -0.07170000
H        0.76880000       1.84550000      -0.00040000
H        0.60140000      -0.26710000      -0.89520000
H        1.80750000      -0.12350000       1.26600000
H        0.27430000      -0.14050000       2.14190000
H        1.37340000      -2.32210000       0.51050000
H       -0.42550000      -3.66220000       1.19520000
H       -1.01530000      -2.33340000       2.20730000
H       -1.95310000      -0.12070000       0.75190000
H       -1.86570000      -0.29780000      -1.00910000
