23
Properties=species:S:1:pos:R:3 gdb_109232=T pbc="F F F"
C        0.03680000       1.52180000       0.24420000
C       -0.05220000       0.04140000      -0.16740000
C       -1.45010000      -0.50660000      -0.12980000
C       -2.16130000      -0.96090000      -1.16950000
C       -3.54470000      -1.42940000      -0.77420000
C       -3.56670000      -1.25080000       0.74620000
C       -2.60370000      -2.04450000       1.59610000
C       -1.90780000      -3.30640000       1.13890000
C       -2.22940000      -0.63650000       1.14210000
H        1.07140000       1.87580000       0.20000000
H       -0.56640000       2.14810000      -0.42060000
H       -0.32350000       1.67710000       1.26600000
H        0.35600000      -0.07870000      -1.17720000
H        0.58900000      -0.54860000       0.50240000
H       -1.79210000      -1.02560000      -2.18820000
H       -4.32810000      -0.82820000      -1.25520000
H       -3.73110000      -2.46900000      -1.07760000
H       -4.48890000      -0.91740000       1.20840000
H       -2.89890000      -2.07830000       2.64310000
H       -1.53320000      -3.22120000       0.11610000
H       -1.05570000      -3.53830000       1.78770000
H       -2.59230000      -4.16180000       1.17570000
H       -2.14910000       0.13580000       1.90040000
