16
Properties=species:S:1:pos:R:3 gdb_80957=T pbc="F F F"
O        0.07120000       1.47720000       0.11820000
C        0.02380000       0.08170000       0.03310000
C       -0.05370000      -0.65940000       1.39260000
C       -1.52350000      -0.15890000       1.52420000
C       -1.36180000      -0.62590000       0.04340000
O       -2.25020000      -0.56220000      -0.99930000
C       -0.61520000      -1.89740000       0.61980000
C        0.26050000      -2.67200000      -0.24140000
N        0.94270000      -3.30900000      -0.92480000
H       -0.09060000       1.83530000      -0.76050000
H        0.75030000      -0.31230000      -0.68620000
H        0.70600000      -0.69280000       2.16800000
H       -2.18500000      -0.75370000       2.15950000
H       -1.64810000       0.91100000       1.67320000
H       -3.09130000      -0.94800000      -0.73050000
H       -1.23990000      -2.55970000       1.22310000
