16
Properties=species:S:1:pos:R:3 gdb_55329=T pbc="F F F"
N        0.47080000       0.51610000      -0.66140000
C       -0.34400000       0.32280000       0.42060000
O       -0.25060000       0.96650000       1.44610000
C       -1.42860000      -0.73470000       0.23540000
C       -2.09440000      -0.76320000      -1.15820000
O       -1.25840000      -1.87280000      -1.57390000
C       -0.92870000      -2.15650000      -0.18580000
C        0.44400000      -2.56560000       0.03120000
C        1.57500000      -2.92260000       0.22490000
H        1.28280000       1.09500000      -0.51420000
H        0.51700000      -0.17990000      -1.38980000
H       -2.07680000      -0.69980000       1.10860000
H       -3.15400000      -1.04710000      -1.13180000
H       -1.95960000       0.11260000      -1.79700000
H       -1.60520000      -2.92810000       0.20920000
H        2.57500000      -3.23610000       0.39990000
