13
Properties=species:S:1:pos:R:3 gdb_24752=T pbc="F F F"
O        0.05010000      -0.06310000       0.00290000
C       -0.05750000       1.14530000       0.00660000
C        1.16680000       1.98950000       0.00040000
N        2.11780000       2.64730000      -0.00450000
C       -1.30330000       1.88550000       0.01710000
C       -1.44340000       3.26840000       0.02160000
N       -2.76990000       3.54130000       0.03110000
C       -3.50120000       2.36680000       0.03320000
C       -2.62010000       1.32310000       0.02480000
H       -0.69760000       4.04700000       0.01850000
H       -3.16530000       4.46660000       0.03610000
H       -4.57870000       2.38960000       0.04060000
H       -2.85320000       0.27100000       0.02380000
