23
Properties=species:S:1:pos:R:3 gdb_120890=T pbc="F F F"
C       -0.08730000       1.57600000       0.16250000
C       -0.06550000       0.04570000       0.11690000
C       -1.45730000      -0.57140000      -0.06520000
C       -1.44900000      -2.09380000      -0.09980000
C       -1.11830000      -2.86710000       1.21910000
C       -2.26420000      -3.81730000       0.87190000
C       -2.26170000      -5.28030000       0.83940000
O       -3.03310000      -4.54970000       1.80570000
C       -2.82070000      -2.83800000      -0.16160000
H        0.91870000       1.98720000       0.29110000
H       -0.50230000       1.99350000      -0.76170000
H       -0.70370000       1.93820000       0.99280000
H        0.58690000      -0.28830000      -0.70090000
H        0.38420000      -0.34200000       1.04030000
H       -2.11520000      -0.23450000       0.74880000
H       -1.90510000      -0.19100000      -0.99410000
H       -0.79740000      -2.44300000      -0.90870000
H       -0.11860000      -3.29220000       1.33510000
H       -1.35590000      -2.27160000       2.10780000
H       -2.84220000      -5.80900000       0.08370000
H       -1.41240000      -5.83170000       1.24230000
H       -3.62870000      -2.23270000       0.26340000
H       -3.14690000      -3.23850000      -1.12460000
