19
Properties=species:S:1:pos:R:3 gdb_32526=T pbc="F F F"
C        0.20550000       1.52250000       0.16390000
C       -0.03480000       0.01950000      -0.05890000
C        0.66720000      -0.51720000      -1.26970000
C        0.13450000      -0.96710000      -2.43640000
O        1.09410000      -1.36710000      -3.30780000
C        2.29980000      -1.17210000      -2.69080000
C        2.09000000      -0.65560000      -1.44600000
O        2.97260000      -0.30830000      -0.47950000
C        4.33420000      -0.51700000      -0.80660000
H        1.27330000       1.72830000       0.27760000
H       -0.16280000       2.10680000      -0.68510000
H       -0.30810000       1.86950000       1.06620000
H        0.30390000      -0.52950000       0.82840000
H       -1.10910000      -0.17480000      -0.15240000
H       -0.88270000      -1.06530000      -2.78040000
H        3.17270000      -1.44510000      -3.25600000
H        4.91980000      -0.20140000       0.05810000
H        4.53120000      -1.57710000      -1.01580000
H        4.62540000       0.07760000      -1.68310000
