18
Properties=species:S:1:pos:R:3 gdb_96924=T pbc="F F F"
C       -0.05760000       1.43470000       0.03510000
N       -0.02380000      -0.01650000       0.11990000
C       -1.09160000      -0.65620000      -0.04050000
N       -2.46700000      -0.28300000      -0.29610000
C       -2.89110000      -1.67890000       0.01870000
C       -2.32980000      -2.56240000      -1.06740000
N       -2.13400000      -2.20430000      -2.44740000
C       -1.42230000      -2.12420000       0.07230000
O       -0.79510000      -3.00320000       0.92440000
H        0.78960000       1.77460000      -0.56940000
H       -0.97870000       1.84330000      -0.40430000
H        0.07300000       1.86700000       1.03480000
H       -2.83610000       0.43410000       0.31810000
H       -3.72240000      -1.89040000       0.67840000
H       -2.59590000      -3.60870000      -0.93280000
H       -2.97300000      -2.43720000      -2.97270000
H       -2.03850000      -1.19340000      -2.51230000
H       -0.06240000      -3.41120000       0.44870000
