10
Properties=species:S:1:pos:R:3 gdb_132852=T pbc="F F F"
F        0.05120000       0.01590000      -0.20630000
C       -0.09240000       1.31030000      -0.06690000
C       -1.22890000       1.91000000       0.25550000
O       -1.29420000       3.28190000       0.38230000
C       -0.19550000       4.05180000       0.18020000
O       -0.24120000       5.23700000       0.28700000
C        1.11690000       3.33330000      -0.19420000
O        2.13260000       3.91300000      -0.39210000
O        1.07340000       1.95870000      -0.29520000
H       -2.16160000       1.40330000       0.43910000
