19
Properties=species:S:1:pos:R:3 gdb_70868=T pbc="F F F"
C        0.01350000       1.55350000       0.08570000
C        0.04300000       0.04770000       0.07590000
C       -1.27480000      -0.78370000       0.22990000
C       -0.36670000      -1.85810000       0.80160000
O       -0.68600000      -3.07580000       1.37750000
C        0.72280000      -0.86780000       1.18450000
C        0.95280000      -1.83020000       0.02720000
O        1.74160000      -2.95380000      -0.03690000
C        0.84640000      -0.73680000      -1.01570000
H        1.02620000       1.97050000       0.07700000
H       -0.51270000       1.93780000      -0.79630000
H       -0.50050000       1.93730000       0.97350000
H       -1.93050000      -0.34980000       0.99340000
H       -1.85020000      -0.99780000      -0.67860000
H       -1.00440000      -2.92940000       2.27440000
H        1.25120000      -0.65980000       2.10390000
H        1.24540000      -3.66810000       0.38580000
H        0.33840000      -0.95360000      -1.96330000
H        1.81610000      -0.26830000      -1.21050000
