19
Properties=species:S:1:pos:R:3 gdb_64136=T pbc="F F F"
C       -0.09780000       1.56060000       0.47250000
C       -0.01830000       0.13340000      -0.05280000
C       -1.36170000      -0.39280000      -0.55800000
O        0.96820000       0.09620000      -1.08130000
C        1.65710000      -1.12930000      -0.95680000
C        1.67900000      -1.33940000       0.57020000
O        0.45200000      -0.74170000       0.98540000
C        1.75600000      -2.73460000       0.98000000
C        1.85230000      -3.88940000       1.29640000
H        0.88220000       1.87560000       0.83760000
H       -0.41250000       2.24020000      -0.32420000
H       -0.81860000       1.62030000       1.29180000
H       -1.75590000       0.26210000      -1.33980000
H       -1.24790000      -1.40100000      -0.96400000
H       -2.08080000      -0.43600000       0.26430000
H        1.13110000      -1.95770000      -1.45110000
H        2.65190000      -1.02100000      -1.39350000
H        2.52350000      -0.78470000       1.00610000
H        1.93130000      -4.90870000       1.58440000
