20
Properties=species:S:1:pos:R:3 gdb_33159=T pbc="F F F"
C        0.02740000       1.51740000       0.01480000
C        0.00250000       0.02470000      -0.03960000
C       -0.02980000      -0.81870000      -1.12910000
C       -0.02490000      -2.15720000      -0.64960000
C        0.01070000      -2.09260000       0.72100000
N        0.03150000      -0.76610000       1.09430000
C       -0.00680000      -0.30260000       2.46590000
C       -1.43430000      -0.15930000       2.99930000
O       -1.32640000       0.28560000       4.33940000
H        0.92580000       1.90600000       0.51130000
H        0.02010000       1.91460000      -1.00290000
H       -0.83880000       1.94190000       0.53840000
H       -0.04250000      -0.49940000      -2.16060000
H       -0.03330000      -3.05980000      -1.24100000
H        0.03240000      -2.86850000       1.47040000
H        0.53930000      -1.01000000       3.09680000
H        0.50370000       0.66080000       2.54380000
H       -1.99110000       0.55430000       2.37280000
H       -1.94570000      -1.13120000       2.92610000
H       -2.21160000       0.37210000       4.70380000
