23
Properties=species:S:1:pos:R:3 gdb_119038=T pbc="F F F"
C       -1.48710000      -0.05830000      -0.13550000
C        0.02610000      -0.16780000       0.09580000
C        0.81010000      -0.64790000      -1.11960000
C        0.70070000       0.17300000      -2.39560000
C        1.28060000       1.58020000      -2.28020000
O        1.19730000       2.18320000      -3.56420000
C        2.14800000      -1.32520000      -0.85300000
C        0.97630000      -2.14760000      -1.29260000
O        0.46430000      -3.03860000      -0.34140000
H       -1.73480000       0.67990000      -0.90460000
H       -1.91090000      -1.01770000      -0.45400000
H       -1.99970000       0.24030000       0.78410000
H        0.41450000       0.80440000       0.42490000
H        0.20910000      -0.86560000       0.91800000
H        1.23390000      -0.33630000      -3.20710000
H       -0.34380000       0.25380000      -2.71940000
H        0.72000000       2.16480000      -1.53410000
H        2.32400000       1.52220000      -1.93110000
H        1.54450000       3.07740000      -3.49910000
H        2.96550000      -1.17190000      -1.54960000
H        2.45000000      -1.44250000       0.18230000
H        0.98360000      -2.53120000      -2.31360000
H       -0.47470000      -3.15710000      -0.51990000
