16
Properties=species:S:1:pos:R:3 gdb_25018=T pbc="F F F"
N        0.04210000       1.24730000      -0.18590000
C        0.01860000      -0.01510000      -0.09240000
N       -1.06240000      -0.80200000       0.23530000
C       -0.69040000      -2.14530000       0.24180000
C        0.60700000      -2.19570000      -0.09020000
O        1.06810000      -0.89700000      -0.29720000
C        1.56420000      -3.28970000      -0.24500000
C        2.71010000      -3.17140000      -1.19040000
N        2.94820000      -3.15230000       0.26000000
H        0.96750000       1.57620000      -0.44550000
H       -1.96610000      -0.41630000       0.43800000
H       -1.37960000      -2.93680000       0.47910000
H        1.12650000      -4.26910000      -0.07190000
H        3.07030000      -4.05800000      -1.70430000
H        2.80420000      -2.24320000      -1.74580000
H        3.09290000      -2.19140000       0.56320000
