15
Properties=species:S:1:pos:R:3 gdb_2582=T pbc="F F F"
O        0.27390000       1.26730000       0.26960000
C        0.09810000      -0.08070000      -0.11370000
C       -1.35490000      -0.51910000      -0.13390000
C       -2.27850000       0.24160000      -1.06390000
O       -2.35840000       1.62270000      -0.70780000
C       -1.72370000      -1.87860000       0.28200000
O       -1.94700000      -0.77210000       1.15610000
H       -0.40310000       1.78340000      -0.18910000
H        0.53010000      -0.27980000      -1.11100000
H        0.64590000      -0.69280000       0.61000000
H       -1.89630000       0.21910000      -2.08970000
H       -3.27440000      -0.22080000      -1.05800000
H       -2.69580000       1.65610000       0.19600000
H       -2.61930000      -2.34640000      -0.12570000
H       -0.94420000      -2.57160000       0.59540000
