16
Properties=species:S:1:pos:R:3 gdb_16993=T pbc="F F F"
C       -0.00580000       1.45070000      -0.02480000
C        1.27640000       0.69450000       0.03920000
C        2.02580000       0.40020000       1.32530000
C        1.01660000      -0.47610000       2.06900000
C       -0.07910000      -0.75610000       1.34640000
C       -0.03120000      -0.07470000       0.02450000
C        0.49340000      -0.63230000      -1.30760000
O        1.68630000       0.20600000      -1.24810000
H       -0.33240000       1.94710000       0.88200000
H       -0.26300000       1.95400000      -0.95200000
H        2.95600000      -0.14100000       1.11340000
H        2.30070000       1.29590000       1.89470000
H        1.18480000      -0.80310000       3.09110000
H       -0.90190000      -1.37330000       1.69140000
H        0.76050000      -1.69340000      -1.25890000
H       -0.09700000      -0.43810000      -2.21060000
