15
Properties=species:S:1:pos:R:3 gdb_25835=T pbc="F F F"
C        0.01620000       1.51440000       0.00840000
C        0.03540000      -0.00130000       0.00230000
O        1.07670000      -0.62330000      -0.00900000
C       -1.27390000      -0.72980000       0.00990000
C       -2.52600000      -0.11450000       0.02190000
N       -3.66890000      -0.80340000       0.02840000
C       -3.54580000      -2.13150000       0.02270000
N       -2.41210000      -2.83980000       0.01130000
C       -1.28650000      -2.12940000       0.00500000
H        1.04300000       1.88020000       0.00190000
H       -0.51530000       1.90160000      -0.86780000
H       -0.50160000       1.89470000       0.89580000
H       -2.62220000       0.96880000       0.02650000
H       -4.47150000      -2.70220000       0.02780000
H       -0.34500000      -2.67130000      -0.00430000
