23
Properties=species:S:1:pos:R:3 gdb_66378=T pbc="F F F"
C        0.04020000       1.55030000       0.00980000
C       -0.05110000       0.02030000       0.00250000
C        0.62730000      -0.55100000      -1.27680000
C        0.81330000      -2.07610000      -1.28160000
C        1.55360000      -2.55560000      -0.02640000
C        0.83710000      -2.08970000       1.24750000
C        0.65130000      -0.56460000       1.26260000
C       -1.51740000      -0.39400000       0.01420000
O       -2.44940000       0.37130000       0.02810000
H        1.08770000       1.86770000       0.00180000
H       -0.45880000       1.97850000      -0.86370000
H       -0.44240000       1.96900000       0.89700000
H        0.06600000      -0.23000000      -2.16270000
H        1.61540000      -0.07740000      -1.35400000
H       -0.15900000      -2.58060000      -1.34630000
H        1.36480000      -2.36670000      -2.18290000
H        1.64920000      -3.64680000      -0.03320000
H        2.57580000      -2.15160000      -0.03380000
H       -0.13390000      -2.59480000       1.32510000
H        1.40530000      -2.38990000       2.13510000
H        1.64080000      -0.09190000       1.32600000
H        0.10700000      -0.25300000       2.16220000
H       -1.70420000      -1.49050000       0.00920000
