18
Properties=species:S:1:pos:R:3 gdb_106697=T pbc="F F F"
C        0.11900000       1.44770000      -0.02700000
C       -0.02970000      -0.02730000       0.15120000
O        1.11110000      -0.88100000      -0.05460000
C        0.42350000      -0.95860000       1.21670000
C        1.24490000      -0.74930000       2.44680000
O        2.12610000      -1.83910000       2.67980000
C       -0.81340000      -1.81610000       1.00920000
N       -1.97150000      -0.91410000       1.25650000
C       -1.27340000      -0.88420000      -0.05710000
H        1.04360000       1.80680000       0.43160000
H        0.14640000       1.70830000      -1.09090000
H       -0.72920000       1.96530000       0.43060000
H        1.79210000       0.20150000       2.36650000
H        0.58790000      -0.68980000       3.31980000
H        2.68290000      -1.91780000       1.89700000
H       -0.90610000      -2.89300000       1.05580000
H       -2.81930000      -1.47130000       1.13610000
H       -1.78720000      -1.11370000      -0.98210000
