23
Properties=species:S:1:pos:R:3 gdb_101709=T pbc="F F F"
C        0.17110000       1.48440000      -0.41920000
C        0.01230000       0.03150000       0.02600000
C       -1.45220000      -0.40670000       0.09440000
O       -2.07270000      -0.36340000      -1.17660000
O        0.61520000      -0.90090000      -0.87850000
C        2.01110000      -0.88680000      -0.92180000
C        2.65670000      -1.80650000      -1.91040000
C        2.75050000      -0.30400000      -2.10830000
C        2.01000000       0.34620000      -3.25460000
H        1.22380000       1.74600000      -0.55070000
H       -0.35920000       1.64890000      -1.35990000
H       -0.25180000       2.15360000       0.33740000
H        0.46400000      -0.10140000       1.02310000
H       -1.49810000      -1.41770000       0.52710000
H       -2.01370000       0.26900000       0.74770000
H       -1.50980000      -0.88830000      -1.75770000
H        2.47260000      -0.78940000       0.06120000
H        3.53380000      -2.36910000      -1.61060000
H        1.98190000      -2.34080000      -2.57160000
H        3.71400000       0.14370000      -1.87580000
H        1.01380000      -0.08860000      -3.37030000
H        1.88370000       1.42160000      -3.09040000
H        2.55080000       0.21290000      -4.19760000
