19
Properties=species:S:1:pos:R:3 gdb_105741=T pbc="F F F"
O        0.18450000       1.36980000       0.05610000
C        0.08870000      -0.03790000       0.02440000
C       -1.36920000      -0.53680000       0.00990000
C       -1.49250000      -2.09030000       0.09470000
C       -2.65530000      -2.38970000       1.07940000
C       -2.86400000      -1.06860000       1.77710000
C       -2.17360000      -0.07770000       1.21630000
C       -2.08880000      -0.02880000      -1.23230000
O       -1.67520000       0.82500000      -1.98190000
H       -0.19480000       1.67270000      -0.77960000
H        0.62230000      -0.46230000      -0.84150000
H        0.58030000      -0.41010000       0.92960000
H       -1.64350000      -2.55280000      -0.88530000
H       -0.55120000      -2.48670000       0.48820000
H       -3.56670000      -2.70740000       0.55570000
H       -2.41090000      -3.19960000       1.77600000
H       -3.51180000      -0.96080000       2.64040000
H       -2.15940000       0.95920000       1.52740000
H       -3.08070000      -0.50130000      -1.41180000
