15
Properties=species:S:1:pos:R:3 gdb_61376=T pbc="F F F"
C       -0.00440000       1.56940000       0.00810000
C        0.01970000       0.04010000       0.00420000
O       -1.31420000      -0.50000000       0.09980000
C       -1.80570000      -0.66720000       1.34270000
N       -1.19140000      -0.35520000       2.40300000
C       -3.18950000      -1.28380000       1.28430000
O       -3.81080000      -1.52010000       2.28560000
C        0.59500000      -0.49910000      -1.23440000
N        1.07830000      -0.89910000      -2.20360000
H        1.01060000       1.95550000      -0.11600000
H       -0.62610000       1.94270000      -0.80860000
H       -0.40010000       1.91670000       0.96380000
H        0.59930000      -0.32560000       0.85780000
H       -1.77690000      -0.59830000       3.20460000
H       -3.57140000      -1.49460000       0.26720000
