21
Properties=species:S:1:pos:R:3 gdb_96366=T pbc="F F F"
C       -0.05150000       1.60660000      -0.03330000
C        0.02480000       0.07460000       0.03520000
C        0.75640000      -0.51100000      -1.18680000
O        2.13720000      -0.18080000      -1.17970000
C        2.80760000      -0.75100000      -0.06700000
C        2.24690000      -0.21710000       1.25780000
C        0.74390000      -0.42170000       1.28420000
C        0.02340000      -0.59250000       2.54950000
O        0.32860000      -1.72710000       1.73130000
H        0.93870000       2.04430000      -0.18610000
H       -0.68240000       1.91910000      -0.87150000
H       -0.47710000       2.02760000       0.88300000
H       -0.98990000      -0.34050000       0.05670000
H        0.63000000      -1.60560000      -1.20070000
H        0.34890000      -0.10620000      -2.11830000
H        2.71120000      -1.84900000      -0.08990000
H        3.86550000      -0.49850000      -0.18040000
H        2.70680000      -0.73680000       2.10420000
H        2.48090000       0.85000000       1.34720000
H        0.56520000      -0.53830000       3.49360000
H       -1.03330000      -0.33220000       2.60970000
