18
Properties=species:S:1:pos:R:3 gdb_62913=T pbc="F F F"
C       -0.27310000       1.41010000      -0.14200000
C        0.10750000      -0.06210000      -0.08420000
O       -1.02970000      -0.77250000      -0.48830000
C        1.49820000      -0.58310000      -0.60080000
C        2.18060000       0.08430000       0.62550000
C        0.91410000      -0.63220000       1.16840000
N        1.32950000      -1.78940000       0.29710000
C        0.63360000      -2.92430000       0.00520000
O        0.45460000      -3.36050000      -1.11900000
H       -0.44940000       1.70130000      -1.18150000
H       -1.21490000       1.54170000       0.39840000
H        0.46740000       2.08260000       0.29010000
H       -0.77750000      -1.54940000      -1.00360000
H        1.86000000      -0.68310000      -1.62300000
H        3.12120000      -0.37700000       0.92210000
H        2.21740000       1.16950000       0.66200000
H        0.58900000      -0.77620000       2.19890000
H        0.31070000      -3.45960000       0.91900000
