18
Properties=species:S:1:pos:R:3 gdb_128417=T pbc="F F F"
C       -0.27250000       0.74880000       1.17980000
N        0.05280000       0.21370000      -0.13850000
C        1.13930000      -0.76030000      -0.13540000
C        0.88410000      -2.02190000       0.64680000
N       -0.12790000      -2.85270000       0.39860000
N        0.05100000      -3.78210000       1.32800000
C       -0.81270000      -4.93560000       1.48160000
N        1.09890000      -3.56420000       2.11100000
N        1.63780000      -2.44570000       1.69160000
H        0.59020000       1.30210000       1.56750000
H       -1.10490000       1.45200000       1.08550000
H       -0.54620000      -0.00950000       1.93230000
H       -0.77170000      -0.21470000      -0.54660000
H        1.36040000      -1.02590000      -1.17520000
H        2.03760000      -0.29280000       0.28020000
H       -0.80350000      -5.52890000       0.56490000
H       -0.42590000      -5.52180000       2.31410000
H       -1.83320000      -4.60860000       1.69150000
