15
Properties=species:S:1:pos:R:3 gdb_1065=T pbc="F F F"
C       -0.01090000       1.42330000      -0.04580000
N        0.03190000      -0.00970000       0.17390000
C       -1.17780000      -0.70820000       0.06810000
C       -2.45460000      -0.17990000       0.05510000
N       -3.34020000      -1.24050000       0.00460000
C       -2.65240000      -2.41910000      -0.02870000
C       -1.30820000      -2.12930000       0.01270000
H        1.00410000       1.82680000      -0.00970000
H       -0.47190000       1.71220000      -1.00610000
H       -0.58710000       1.90110000       0.75510000
H        0.77260000      -0.45700000      -0.34780000
H       -2.80430000       0.83750000       0.08460000
H       -4.33950000      -1.15150000      -0.01440000
H       -3.16650000      -3.36560000      -0.07540000
H       -0.50070000      -2.84570000       0.01220000
