16
Properties=species:S:1:pos:R:3 gdb_11924=T pbc="F F F"
C       -0.05020000       1.56270000       0.03120000
C        0.02490000       0.06550000       0.00740000
C       -0.85830000      -0.82540000       0.84060000
C        0.63660000      -0.93880000       1.00460000
N        1.14270000      -1.80450000      -0.08930000
C        0.69920000      -0.77010000      -1.08950000
C        1.33930000      -0.72790000       2.22360000
N        1.93240000      -0.54850000       3.20250000
H        0.90740000       2.01630000      -0.24480000
H       -0.80930000       1.92490000      -0.67250000
H       -0.32150000       1.92720000       1.02660000
H       -1.38160000      -0.32050000       1.64580000
H       -1.37240000      -1.67920000       0.40810000
H        2.15620000      -1.85890000      -0.06210000
H        0.05500000      -1.17140000      -1.87880000
H        1.53840000      -0.23570000      -1.54620000
