18
Properties=species:S:1:pos:R:3 gdb_44956=T pbc="F F F"
O       -0.00650000      -0.00070000       0.04730000
C       -0.03630000       1.20020000       0.02270000
C       -1.27930000       2.10270000      -0.02040000
C       -0.66400000       3.51900000       0.05110000
C       -0.36670000       3.92770000       1.49910000
O        0.36770000       2.91090000       2.17040000
C        1.53200000       2.50930000       1.45800000
C        1.17510000       2.15900000       0.00460000
N        0.65970000       3.39430000      -0.61480000
H       -1.80760000       1.94890000      -0.96810000
H       -1.96390000       1.84120000       0.79060000
H       -1.26800000       4.28730000      -0.43670000
H        0.19350000       4.87440000       1.49420000
H       -1.28920000       4.06150000       2.07160000
H        2.28510000       3.31170000       1.45210000
H        1.92870000       1.63860000       1.98640000
H        2.03460000       1.74360000      -0.52440000
H        0.52340000       3.24240000      -1.61150000
