23
Properties=species:S:1:pos:R:3 gdb_89564=T pbc="F F F"
C       -0.01050000       1.59950000      -0.00040000
C        0.05260000       0.08050000       0.02870000
C        1.06860000      -0.64700000      -0.89470000
C        1.36390000      -1.65260000       0.26310000
C        0.72800000      -0.62400000       1.23880000
C        0.58350000      -2.98620000       0.09900000
C        1.65020000      -3.96480000      -0.33020000
C        2.87450000      -3.47900000      -0.13230000
C        2.83340000      -2.09040000       0.45870000
H        0.98340000       2.03560000       0.15420000
H       -0.38800000       1.96560000      -0.96200000
H       -0.66960000       1.98780000       0.78460000
H       -0.95030000      -0.33360000      -0.12460000
H        0.70440000      -1.05830000      -1.84050000
H        1.93660000      -0.01120000      -1.10330000
H        1.48960000       0.01850000       1.69580000
H        0.08320000      -1.01440000       2.03210000
H        0.13060000      -3.30560000       1.05010000
H       -0.24180000      -2.90310000      -0.61860000
H        1.41950000      -4.95400000      -0.71070000
H        3.80020000      -4.00990000      -0.32610000
H        3.53530000      -1.39360000      -0.01550000
H        3.10290000      -2.11580000       1.52610000
