15
Properties=species:S:1:pos:R:3 gdb_98067=T pbc="F F F"
N        0.16120000       1.17530000       0.00430000
C        0.03590000      -0.16340000      -0.18470000
N        0.79860000      -1.01330000      -0.76640000
C       -1.23630000      -0.73170000       0.39460000
O       -2.12590000      -0.03490000       0.82450000
C       -1.35060000      -2.26170000       0.42480000
O       -0.97860000      -2.87060000       1.40130000
C       -2.02410000      -2.96590000      -0.73470000
O       -2.15480000      -4.33280000      -0.48570000
H        0.86700000       1.70410000      -0.47810000
H       -0.64160000       1.66370000       0.37120000
H        1.63430000      -0.58480000      -1.16880000
H       -3.00590000      -2.49080000      -0.89770000
H       -1.41790000      -2.76570000      -1.63270000
H       -1.72800000      -4.48330000       0.37250000
