15
Properties=species:S:1:pos:R:3 gdb_127731=T pbc="F F F"
C       -0.19510000       1.46250000      -0.19250000
N       -0.11310000       0.02500000      -0.02250000
N       -0.11580000      -0.81830000      -1.04560000
N       -0.04210000      -2.01850000      -0.52710000
C        0.00280000      -1.85140000       0.81800000
C        0.12680000      -2.97750000       1.78710000
C        1.50870000      -3.62960000       1.74410000
O        2.10080000      -4.00250000       2.71990000
N       -0.03720000      -0.56660000       1.16310000
H        0.68480000       1.93580000       0.24770000
H       -0.23550000       1.66010000      -1.26270000
H       -1.09460000       1.84160000       0.29690000
H       -0.08170000      -2.64790000       2.80570000
H       -0.59480000      -3.75970000       1.51610000
H        1.92290000      -3.75190000       0.71990000
