17
Properties=species:S:1:pos:R:3 gdb_116836=T pbc="F F F"
C       -0.03310000       1.55540000      -0.01440000
C       -0.01020000       0.02600000      -0.01910000
C        0.72480000      -0.54680000       1.21040000
C        0.76810000      -2.00010000       1.24190000
C        0.79520000      -3.20770000       1.25420000
C        0.83780000      -4.64830000       1.28800000
O        1.37290000      -5.28050000       2.17860000
C        0.18620000      -5.29980000       0.16590000
C       -0.35090000      -5.85080000      -0.75960000
H        0.98160000       1.96870000      -0.02320000
H       -0.55760000       1.94240000      -0.89270000
H       -0.54160000       1.94310000       0.87520000
H       -1.03200000      -0.36840000      -0.03560000
H        0.47900000      -0.34310000      -0.92700000
H        1.75320000      -0.16160000       1.24160000
H        0.24540000      -0.18710000       2.13110000
H       -0.82310000      -6.34440000      -1.57390000
