11
Properties=species:S:1:pos:R:3 gdb_1026=T pbc="F F F"
O       -0.01720000      -0.06040000      -0.00050000
C       -0.00180000       1.14950000       0.00900000
C        1.18860000       1.98360000       0.00250000
C        1.32900000       3.34850000       0.01170000
C        2.72590000       3.61210000      -0.00170000
C        3.33010000       2.38740000      -0.01780000
O        2.42050000       1.39490000      -0.01560000
H       -0.93730000       1.75110000       0.02380000
H        0.52340000       4.06660000       0.02620000
H        3.21790000       4.57150000       0.00030000
H        4.36280000       2.07730000      -0.03160000
