15
Properties=species:S:1:pos:R:3 gdb_9708=T pbc="F F F"
C        0.03860000       1.46040000       0.06960000
C       -0.03810000      -0.07460000      -0.00010000
C        0.78610000      -0.66040000      -1.20000000
O        1.83430000      -1.43150000      -0.57340000
C        1.60860000      -1.33520000       0.75610000
N        0.63860000      -0.65080000       1.19690000
C       -1.43420000      -0.51330000      -0.04770000
C       -2.58120000      -0.86380000      -0.11820000
H        1.08520000       1.77730000       0.09920000
H       -0.44650000       1.90960000      -0.80200000
H       -0.45980000       1.81740000       0.97300000
H        0.19790000      -1.32560000      -1.83420000
H        1.24960000       0.11860000      -1.81090000
H        2.31960000      -1.87860000       1.36890000
H       -3.59440000      -1.17890000      -0.16590000
