18
Properties=species:S:1:pos:R:3 gdb_31824=T pbc="F F F"
C        0.02760000       1.45010000       0.09720000
N       -0.16710000       0.02920000      -0.10420000
C        0.54240000      -0.65170000      -1.09720000
C        1.18300000       0.00760000      -2.15300000
C        1.83550000      -0.71290000      -3.15360000
C        1.87410000      -2.10260000      -3.12000000
O        2.50400000      -2.86030000      -4.07190000
C        1.24620000      -2.77120000      -2.06710000
C        0.59180000      -2.05610000      -1.07740000
H        1.08310000       1.73820000       0.23320000
H       -0.36590000       2.01700000      -0.75410000
H       -0.53210000       1.76090000       0.98260000
H       -0.24520000      -0.49370000       0.75460000
H        1.17740000       1.08930000      -2.20770000
H        2.32370000      -0.17630000      -3.96370000
H        2.88520000      -2.27320000      -4.73220000
H        1.27880000      -3.85460000      -2.03910000
H        0.10110000      -2.59190000      -0.26940000
