15
Properties=species:S:1:pos:R:3 gdb_133042=T pbc="F F F"
C        0.06030000       1.43680000       0.08950000
N       -0.04760000       0.01050000      -0.11790000
C       -1.23090000      -0.67490000      -0.04150000
C       -2.49010000      -0.04200000      -0.02180000
N       -3.62100000      -0.74410000       0.01670000
C       -3.50770000      -2.05110000       0.04040000
F       -4.63210000      -2.76550000       0.07830000
C       -2.27810000      -2.70310000       0.03410000
N       -1.14340000      -2.01570000      -0.00440000
H        1.11240000       1.72110000       0.03150000
H       -0.47490000       1.99060000      -0.69090000
H       -0.33150000       1.76040000       1.06540000
H        0.76420000      -0.56040000       0.05450000
H       -2.58500000       1.03850000      -0.03840000
H       -2.22000000      -3.78720000       0.06440000
