18
Properties=species:S:1:pos:R:3 gdb_97506=T pbc="F F F"
C        0.06170000       1.42070000      -0.03520000
N        0.07800000      -0.03040000       0.00100000
C        0.21130000      -0.64650000       1.30470000
C       -0.02610000      -0.72230000      -1.17630000
O       -0.13220000      -0.18610000      -2.26890000
C       -0.00700000      -2.17540000      -1.07910000
C       -0.00060000      -3.38100000      -1.13580000
C       -0.02740000      -4.83660000      -1.27100000
O        0.33890000      -5.29150000      -2.56210000
H        0.99280000       1.82640000       0.38010000
H       -0.04400000       1.73810000      -1.07120000
H       -0.77580000       1.81080000       0.55660000
H       -0.62020000      -0.35360000       1.95870000
H        0.21360000      -1.73160000       1.20690000
H        1.14690000      -0.33480000       1.78680000
H        0.68710000      -5.29260000      -0.57650000
H       -1.02690000      -5.19850000      -0.97850000
H       -0.18290000      -4.79950000      -3.20530000
