23
Properties=species:S:1:pos:R:3 gdb_84090=T pbc="F F F"
C        0.67610000       1.58160000       0.07320000
C        0.11340000       0.15460000      -0.04020000
C        0.66810000      -0.61440000      -1.21510000
C        1.52260000      -1.57820000      -0.86140000
C        2.26240000      -2.50240000      -1.77720000
C        1.69960000      -1.63710000       0.64650000
C        3.07540000      -1.13190000       1.11600000
C        0.49600000      -0.79120000       1.14430000
O        0.80850000      -0.14840000       2.36840000
H        1.76800000       1.58010000       0.12520000
H        0.38090000       2.17790000      -0.79650000
H        0.30200000       2.08550000       0.96990000
H       -0.98090000       0.23700000      -0.10760000
H        0.40810000      -0.37220000      -2.24170000
H        2.01610000      -2.31170000      -2.82550000
H        3.34840000      -2.39930000      -1.66100000
H        2.02540000      -3.55140000      -1.55660000
H        1.59370000      -2.66960000       1.00640000
H        3.28340000      -0.12450000       0.74460000
H        3.11810000      -1.10410000       2.20700000
H        3.87020000      -1.79380000       0.75720000
H       -0.34760000      -1.48190000       1.29270000
H        0.00850000       0.27040000       2.69980000
