14
Properties=species:S:1:pos:R:3 gdb_20770=T pbc="F F F"
C        0.08400000       1.47060000       0.05840000
C       -0.00960000      -0.02480000       0.02230000
N       -0.11220000      -0.55000000      -1.15120000
O       -0.20340000      -1.94600000      -1.24490000
C       -0.18240000      -2.69460000      -0.13100000
C       -0.07770000      -2.20600000       1.11430000
C        0.02120000      -0.77460000       1.29970000
N        0.12780000      -0.10830000       2.39450000
H        1.01100000       1.77110000       0.55520000
H        0.04780000       1.87690000      -0.95270000
H       -0.73340000       1.87780000       0.66050000
H       -0.26190000      -3.74700000      -0.38080000
H       -0.06790000      -2.87920000       1.96330000
H        0.13710000      -0.74220000       3.19700000
