23
Properties=species:S:1:pos:R:3 gdb_96356=T pbc="F F F"
C       -0.06430000       1.53560000      -0.15110000
C        0.05760000       0.02540000      -0.00340000
O        0.71610000      -0.44780000      -1.17730000
C        0.74880000      -1.86360000      -1.22480000
C        1.47340000      -2.40900000      -0.00240000
O        0.88710000      -1.90770000       1.18600000
C        0.80320000      -0.46850000       1.26320000
C        2.20660000       0.14450000       1.38810000
C       -0.01780000      -0.21840000       2.52760000
H        0.92030000       2.00350000      -0.23120000
H       -0.62130000       1.76720000      -1.06270000
H       -0.59470000       1.97540000       0.69740000
H       -0.95110000      -0.42140000       0.03490000
H       -0.27780000      -2.26490000      -1.25820000
H        1.26410000      -2.14210000      -2.14950000
H        1.38880000      -3.49970000       0.04870000
H        2.54200000      -2.15310000      -0.05870000
H        2.74680000       0.11230000       0.43910000
H        2.14860000       1.18980000       1.70340000
H        2.77910000      -0.40660000       2.13960000
H        0.48010000      -0.68310000       3.38330000
H       -0.12690000       0.84990000       2.73090000
H       -1.01230000      -0.66440000       2.43390000
