19
Properties=species:S:1:pos:R:3 gdb_107354=T pbc="F F F"
C        0.07250000       1.50530000       0.26160000
C        0.04160000       0.00510000      -0.05460000
C       -1.35110000      -0.56060000      -0.10290000
C       -2.14200000      -0.97260000       1.10700000
C       -1.74160000      -2.00630000       0.06520000
C       -2.73700000      -2.29870000      -1.03240000
C       -2.96250000      -0.94380000      -1.71440000
O       -3.72730000      -0.67650000      -2.59250000
O       -2.13660000      -0.00840000      -1.15690000
H        1.10040000       1.87900000       0.27330000
H       -0.48750000       2.06980000      -0.48860000
H       -0.37430000       1.71070000       1.23970000
H        0.53030000      -0.18400000      -1.01840000
H        0.60730000      -0.55320000       0.70050000
H       -1.62260000      -1.00590000       2.05860000
H       -3.18200000      -0.66690000       1.16700000
H       -1.00110000      -2.75150000       0.32930000
H       -2.34560000      -2.99970000      -1.77680000
H       -3.69930000      -2.69230000      -0.69270000
