23
Properties=species:S:1:pos:R:3 gdb_120959=T pbc="F F F"
C       -0.12600000       1.54860000       0.08930000
C       -0.04130000       0.02040000       0.06870000
C        0.72690000      -0.55130000       1.26550000
C        0.81120000      -2.07050000       1.26850000
C        1.57980000      -2.69380000       2.45740000
C        0.82910000      -3.99930000       2.71500000
C       -0.49910000      -3.90610000       3.44340000
C       -0.45350000      -3.88400000       1.94040000
O       -0.51870000      -2.61620000       1.34280000
H        0.87100000       2.00380000       0.07250000
H       -0.67940000       1.92910000      -0.77490000
H       -0.63470000       1.90470000       0.99220000
H       -1.04760000      -0.41120000       0.05960000
H        0.44260000      -0.30890000      -0.86060000
H        1.74990000      -0.15090000       1.27730000
H        0.25080000      -0.22910000       2.20120000
H        1.27230000      -2.41210000       0.32590000
H        2.62890000      -2.87000000       2.20430000
H        1.55720000      -2.02890000       3.32870000
H        1.38320000      -4.92900000       2.75890000
H       -0.86750000      -4.80240000       3.93230000
H       -0.74740000      -2.97430000       3.94130000
H       -0.87580000      -4.69030000       1.34830000
