19
Properties=species:S:1:pos:R:3 gdb_86298=T pbc="F F F"
C       -0.25770000       1.29010000      -1.28690000
C        0.25580000      -0.08020000      -0.89950000
O        1.62230000      -0.31680000      -1.29970000
C        2.05450000      -0.57350000       0.05330000
C        3.15550000       0.35400000       0.52120000
C        0.61530000      -0.29850000       0.61060000
O        0.47670000       0.80530000       1.44380000
C       -0.04340000      -1.50330000       1.23020000
O       -0.59640000      -1.44670000       2.30310000
H        0.33560000       2.07940000      -0.82230000
H       -0.20920000       1.39920000      -2.37480000
H       -1.29940000       1.41020000      -0.97290000
H       -0.40060000      -0.86260000      -1.30760000
H        2.36870000      -1.62210000       0.15950000
H        2.82970000       1.39540000       0.49940000
H        3.45380000       0.10650000       1.54490000
H        4.02650000       0.23780000      -0.13100000
H       -0.01980000       0.49010000       2.21720000
H        0.00750000      -2.44470000       0.64700000
