16
Properties=species:S:1:pos:R:3 gdb_34167=T pbc="F F F"
N        0.03520000      -1.10890000      -0.02210000
C       -0.00480000       0.04750000      -0.00390000
C       -0.06600000       1.48410000       0.01690000
C       -1.06720000       2.27290000       0.90640000
C       -0.82660000       3.41920000      -0.10320000
C        0.69060000       3.72170000      -0.10380000
C        0.96710000       2.93360000      -1.36550000
C        1.25540000       2.30320000      -0.02420000
C       -0.47940000       2.37730000      -1.23300000
H       -2.07650000       1.85950000       0.82490000
H       -0.80260000       2.42580000       1.95570000
H       -1.52930000       4.23860000      -0.23820000
H        1.21550000       4.57680000       0.29990000
H        1.61190000       3.12850000      -2.21060000
H        2.20140000       2.05480000       0.43570000
H       -1.15660000       2.03950000      -2.01180000
