17
Properties=species:S:1:pos:R:3 gdb_49067=T pbc="F F F"
O       -0.95110000       1.46580000       0.55760000
C        0.07550000       0.98900000       0.14520000
C        1.35880000       1.76150000      -0.00980000
C        1.51200000       3.08670000       0.78380000
C        1.77290000       3.86780000      -0.53650000
C        1.55870000       2.56650000      -1.35920000
O        2.69310000       1.97460000      -1.95040000
C        3.40510000       1.34720000      -0.90880000
O        2.44560000       0.85840000       0.01000000
H        0.15150000      -0.06820000      -0.18900000
H        0.58360000       3.35530000       1.29040000
H        2.33030000       3.07080000       1.50610000
H        1.05190000       4.65680000      -0.75840000
H        2.78000000       4.27590000      -0.64750000
H        0.75180000       2.57440000      -2.09300000
H        3.97260000       0.50750000      -1.31730000
H        4.08400000       2.05920000      -0.40990000
