14
Properties=species:S:1:pos:R:3 gdb_13574=T pbc="F F F"
C        0.27060000       1.39260000       0.20700000
C        0.01020000      -0.06170000      -0.09970000
C        0.79180000      -0.78910000      -1.16500000
N        0.99130000      -1.07190000       0.24280000
C        2.12230000      -0.91600000       0.99910000
O        2.18890000      -0.35620000       2.06830000
C        3.29500000      -1.60140000       0.41460000
N        4.23580000      -2.10240000      -0.03190000
H        1.29120000       1.68080000      -0.05970000
H       -0.42480000       2.01890000      -0.35990000
H        0.13270000       1.59520000       1.27210000
H       -1.01370000      -0.39410000       0.06120000
H        0.32440000      -1.58070000      -1.74310000
H        1.57380000      -0.23700000      -1.68100000
