21
Properties=species:S:1:pos:R:3 gdb_104148=T pbc="F F F"
C       -0.04320000       1.54700000       0.10830000
C        0.04340000       0.05600000       0.01680000
C        0.01760000      -0.69050000      -1.08820000
C        0.05080000      -2.17700000      -0.79540000
O       -1.23740000      -2.77390000      -0.98570000
C        1.05530000      -2.94410000      -1.65760000
O        0.56430000      -2.89890000      -2.99650000
C        0.39920000      -2.22560000       0.71040000
C        0.13700000      -0.80410000       1.25970000
H        0.83720000       1.96500000       0.61330000
H       -0.12310000       2.01060000      -0.87850000
H       -0.91450000       1.85440000       0.70120000
H       -0.07520000      -0.31240000      -2.10060000
H       -1.32380000      -2.89780000      -1.93980000
H        2.05100000      -2.48310000      -1.58350000
H        1.11870000      -3.98140000      -1.29710000
H        1.04060000      -3.54540000      -3.52400000
H       -0.19620000      -2.99830000       1.20050000
H        1.45480000      -2.48800000       0.83880000
H        0.93040000      -0.46650000       1.93800000
H       -0.79740000      -0.74780000       1.83440000
