21
Properties=species:S:1:pos:R:3 gdb_37193=T pbc="F F F"
C        0.02480000       1.45220000      -0.06230000
C        1.34970000       0.75540000       0.04990000
C        0.00750000      -0.04410000       0.05840000
C        0.40950000      -0.71250000      -1.25980000
C        0.04370000      -0.14910000      -2.66960000
C        1.39900000       0.65830000      -2.67820000
C        1.73370000       0.07620000      -1.26830000
C        2.53830000      -1.24710000      -1.16150000
C        1.19090000      -2.04970000      -1.15280000
H       -0.28220000       1.97730000       0.83700000
H       -0.28000000       1.95410000      -0.97640000
H        2.02700000       0.97370000       0.87020000
H       -0.49930000      -0.53100000       0.88630000
H       -0.04250000      -0.90830000      -3.45210000
H       -0.85640000       0.47050000      -2.70170000
H        2.10030000       0.36830000      -3.46580000
H        1.28250000       1.74470000      -2.71520000
H        3.18310000      -1.45110000      -2.02080000
H        3.14480000      -1.34300000      -0.25680000
H        0.99500000      -2.62340000      -0.24290000
H        1.05510000      -2.71870000      -2.00710000
