21
Properties=species:S:1:pos:R:3 gdb_71392=T pbc="F F F"
C        0.00060000       1.45820000       0.00400000
C       -0.02870000      -0.04080000      -0.02430000
C       -1.24710000      -0.94180000      -0.25510000
C       -0.36240000      -2.09850000       0.26880000
C        0.56530000      -1.02390000       0.95830000
C        1.20960000      -0.86800000      -0.40610000
C        0.74640000      -2.25180000      -0.83070000
C        1.74760000      -3.35950000      -0.51720000
O        0.32630000      -2.32090000      -2.18280000
H        0.97290000       1.83120000       0.34430000
H       -0.18450000       1.87700000      -0.99220000
H       -0.76370000       1.85710000       0.68080000
H       -2.04840000      -0.69620000       0.44900000
H       -1.64460000      -1.04170000      -1.26940000
H       -0.79310000      -2.97990000       0.74290000
H        0.97310000      -0.91490000       1.95250000
H        2.15000000      -0.38620000      -0.64690000
H        2.08970000      -3.30910000       0.51980000
H        1.28900000      -4.34540000      -0.66880000
H        2.61880000      -3.28660000      -1.17600000
H        0.13950000      -3.24160000      -2.39560000
