23
Properties=species:S:1:pos:R:3 gdb_68187=T pbc="F F F"
C       -0.13500000       1.49710000       0.00240000
C        0.07780000       0.00970000       0.03530000
C        1.04550000      -0.77250000      -0.89330000
C        0.72380000      -1.90550000       0.13300000
C        0.73330000      -0.77060000       1.20660000
C       -0.79830000      -2.09050000      -0.09300000
C       -1.17300000      -2.78230000      -1.40730000
C       -1.53930000      -2.78020000       1.05640000
O       -1.17860000      -0.68230000      -0.15070000
H        0.81290000       2.02450000       0.14240000
H       -0.56510000       1.80190000      -0.95680000
H       -0.82470000       1.80360000       0.79500000
H        0.75870000      -0.89230000      -1.93860000
H        2.07860000      -0.42730000      -0.81920000
H        1.32890000      -2.80750000       0.22380000
H        1.74340000      -0.42540000       1.43570000
H        0.15460000      -0.88860000       2.12340000
H       -0.90180000      -3.84310000      -1.37360000
H       -2.25390000      -2.71560000      -1.56410000
H       -0.68350000      -2.33100000      -2.27120000
H       -1.31850000      -2.33060000       2.02530000
H       -2.61910000      -2.70900000       0.89420000
H       -1.27420000      -3.84210000       1.10180000
