12
Properties=species:S:1:pos:R:3 gdb_3693=T pbc="F F F"
C       -0.01480000       1.48920000       0.00490000
C       -0.01930000       0.00220000      -0.01510000
N       -0.10520000      -0.72330000      -1.08880000
N       -0.07160000      -2.02230000      -0.62850000
C        0.03590000      -2.13620000       0.74050000
O        0.08940000      -3.12050000       1.44430000
N        0.06760000      -0.78410000       1.11230000
H        0.90850000       1.87910000       0.44760000
H       -0.09520000       1.85680000      -1.01890000
H       -0.85520000       1.88260000       0.58740000
H       -0.12380000      -2.78920000      -1.27480000
H        0.14410000      -0.48310000       2.06810000
