18
Properties=species:S:1:pos:R:3 gdb_91247=T pbc="F F F"
O       -0.83900000       0.95180000       1.02260000
C       -0.12440000       0.07840000       0.15560000
C        0.87280000      -0.82770000       0.91410000
C        0.04960000      -2.01350000       1.43920000
N       -0.81150000      -1.76680000       2.60290000
C       -1.99450000      -1.71100000       1.89900000
O       -3.12880000      -1.49180000       2.22330000
C       -1.25700000      -2.04910000       0.57460000
C       -1.14980000      -0.90230000      -0.44020000
H       -0.20240000       1.50230000       1.48920000
H        0.38160000       0.65770000      -0.63010000
H        1.62880000      -1.20300000       0.21360000
H        1.40740000      -0.28940000       1.70510000
H        0.62900000      -2.93690000       1.52330000
H       -0.59210000      -1.43570000       3.53160000
H       -1.54600000      -3.00690000       0.14080000
H       -2.10560000      -0.40410000      -0.61830000
H       -0.78110000      -1.28420000      -1.39800000
