13
Properties=species:S:1:pos:R:3 gdb_129192=T pbc="F F F"
N       -0.06250000       1.23350000       0.51300000
C       -0.00670000       0.04340000       0.04720000
N        1.13300000      -0.68300000      -0.29700000
N        1.16620000      -1.93220000      -0.78460000
C        0.01190000      -2.51720000      -0.94970000
N       -1.22580000      -1.94330000      -0.65940000
C       -1.21870000      -0.74480000      -0.19370000
C        0.00320000      -3.84520000      -1.46540000
C       -0.02830000      -4.96610000      -1.89940000
H        0.86290000       1.65150000       0.62550000
H        2.04510000      -0.26330000      -0.18320000
H       -2.16250000      -0.25940000       0.04610000
H       -0.05440000      -5.95620000      -2.28280000
