17
Properties=species:S:1:pos:R:3 gdb_120375=T pbc="F F F"
O       -0.21530000       1.52830000       0.28930000
C        0.07110000       0.15870000       0.04730000
C       -1.25790000      -0.56880000      -0.10760000
N       -1.99720000      -0.15650000      -1.28400000
C       -2.62350000       1.06880000      -1.51980000
N       -3.22690000       1.18960000      -2.63930000
C       -3.03390000      -0.08800000      -3.33040000
C       -2.20510000      -0.97190000      -2.39520000
O       -1.80100000      -2.10350000      -2.52860000
H        0.60100000       2.03180000       0.22340000
H        0.66960000       0.02540000      -0.86520000
H        0.62400000      -0.29120000       0.88630000
H       -1.08430000      -1.64290000      -0.21760000
H       -1.86450000      -0.40180000       0.78970000
H       -2.55830000       1.84170000      -0.76390000
H       -3.99500000      -0.56230000      -3.55740000
H       -2.51590000       0.05510000      -4.28510000
