18
Properties=species:S:1:pos:R:3 gdb_79476=T pbc="F F F"
C       -0.16210000       1.59850000       0.00290000
C       -0.03450000       0.08470000       0.00570000
C        1.18480000      -0.59240000      -0.65910000
C        2.13940000      -0.30130000       0.55560000
C        2.58310000      -1.77290000       0.65460000
C        1.09410000      -1.85170000       0.27190000
C        0.71720000      -0.61210000       1.17100000
C        0.37720000      -0.63970000       2.56790000
N        0.09150000      -0.65100000       3.68940000
H        0.78850000       2.08850000       0.23570000
H       -0.49120000       1.95580000      -0.97860000
H       -0.89980000       1.92990000       0.74100000
H       -0.99200000      -0.39370000      -0.23270000
H        1.47890000      -0.60030000      -1.70850000
H        2.71740000       0.60430000       0.73520000
H        3.29630000      -2.11520000      -0.10060000
H        2.85990000      -2.14050000       1.64660000
H        0.45370000      -2.72100000       0.12000000
