16
Properties=species:S:1:pos:R:3 gdb_126950=T pbc="F F F"
C       -0.07260000       1.51770000      -0.07480000
C       -0.03230000       0.00820000       0.13090000
N       -1.36830000      -0.56270000      -0.01940000
C       -1.52090000      -1.91090000      -0.02660000
N       -0.59650000      -2.80840000      -0.14000000
N       -1.34400000      -3.98930000      -0.17800000
C       -2.67880000      -3.79610000      -0.04010000
O       -3.61020000      -4.54660000       0.00580000
O       -2.78920000      -2.38910000       0.04480000
H        0.93040000       1.93920000       0.03070000
H       -0.45210000       1.76810000      -1.06940000
H       -0.71510000       2.00280000       0.66910000
H        0.60960000      -0.46770000      -0.61600000
H        0.39370000      -0.23780000       1.11450000
H       -2.12790000      -0.06310000       0.41990000
H       -0.88250000      -4.87990000      -0.21120000
