13
Properties=species:S:1:pos:R:3 gdb_2006=T pbc="F F F"
N        0.00450000      -1.08410000      -0.04360000
C       -0.01180000       0.07120000      -0.01120000
C       -0.00680000       1.51420000       0.03890000
C       -0.66540000       2.44430000       1.09780000
C       -0.05990000       3.33700000      -0.01520000
C        1.22650000       2.46780000       0.02980000
N       -0.69400000       2.37500000      -1.01530000
H       -1.75310000       2.40210000       1.13200000
H       -0.19570000       2.47540000       2.08090000
H       -0.14640000       4.41560000      -0.13230000
H        1.84800000       2.50080000       0.92900000
H        1.82760000       2.44560000      -0.88280000
H       -0.12740000       2.35770000      -1.87030000
