12
Properties=species:S:1:pos:R:3 gdb_20710=T pbc="F F F"
C       -0.03470000       1.45620000      -0.03830000
C        0.00530000      -0.02980000      -0.01240000
N       -0.04960000      -0.80440000      -1.07660000
N        0.02250000      -2.02950000      -0.53250000
C       -0.00320000      -3.20290000      -1.33730000
O        0.05760000      -4.30790000      -0.89690000
N        0.11670000      -2.01210000       0.80980000
N        0.10650000      -0.76640000       1.14750000
H        0.88690000       1.87090000       0.38080000
H       -0.15270000       1.81240000      -1.06220000
H       -0.86540000       1.82600000       0.56960000
H       -0.08640000      -2.91700000      -2.39700000
