23
Properties=species:S:1:pos:R:3 gdb_93147=T pbc="F F F"
C        0.18420000       1.66790000       0.00950000
C       -0.05980000       0.15020000       0.00340000
C        0.52230000      -0.45300000      -1.30830000
C       -0.04480000      -1.77290000      -1.77960000
C        0.20280000      -2.97350000      -1.25690000
C        1.04890000      -3.20800000      -0.02430000
C        0.22400000      -2.98690000       1.22500000
C       -0.01460000      -1.79220000       1.76480000
C        0.54450000      -0.46720000       1.29830000
H        1.25800000       1.89230000       0.00160000
H       -0.26010000       2.14640000      -0.86930000
H       -0.24510000       2.13680000       0.90090000
H       -1.14290000      -0.02320000       0.01160000
H        0.36780000       0.28070000      -2.10700000
H        1.61190000      -0.53180000      -1.18850000
H       -0.72080000      -1.71800000      -2.63050000
H       -0.28120000      -3.84650000      -1.68880000
H        1.45830000      -4.22300000      -0.03330000
H        1.90200000      -2.51830000      -0.02790000
H       -0.25270000      -3.86470000       1.65550000
H       -0.67600000      -1.74650000       2.62770000
H        1.63190000      -0.54450000       1.15910000
H        0.40370000       0.25780000       2.10740000
