22
Properties=species:S:1:pos:R:3 gdb_117222=T pbc="F F F"
C       -0.07630000       1.44880000      -0.16340000
C       -0.04730000      -0.08060000      -0.11780000
C       -1.44020000      -0.69080000       0.04550000
C       -1.42850000      -2.21430000       0.04640000
O       -0.46790000      -2.87770000      -0.28460000
N       -2.58700000      -2.79680000       0.54510000
C       -3.95450000      -2.59560000       0.11560000
C       -3.28450000      -3.94140000       0.00700000
C       -2.91220000      -4.51660000      -1.33940000
H        0.93160000       1.85950000      -0.27690000
H       -0.67930000       1.81240000      -1.00350000
H       -0.50440000       1.86850000       0.75410000
H        0.40950000      -0.48170000      -1.02770000
H        0.58920000      -0.42010000       0.70690000
H       -1.92390000      -0.34200000       0.96600000
H       -2.09650000      -0.35950000      -0.77280000
H       -4.68330000      -2.39980000       0.89850000
H       -4.12400000      -2.05260000      -0.81270000
H       -3.54830000      -4.68110000       0.76200000
H       -2.76620000      -3.72870000      -2.08390000
H       -1.98040000      -5.08360000      -1.27260000
H       -3.70530000      -5.18290000      -1.69340000
