17
Properties=species:S:1:pos:R:3 gdb_69752=T pbc="F F F"
C       -0.03670000       1.54800000       0.05990000
C        0.11740000       0.06080000       0.00520000
N       -0.82050000      -0.86220000       0.68240000
C        0.62690000      -0.93560000       0.99070000
C        1.29120000      -1.77050000      -0.14600000
N        0.50430000      -2.79990000      -0.82320000
C       -0.11280000      -1.92170000      -1.71140000
O       -0.95900000      -2.08040000      -2.54440000
C        0.74450000      -0.74170000      -1.17660000
H        0.88570000       2.05160000      -0.24790000
H       -0.84000000       1.88390000      -0.60570000
H       -0.27880000       1.87910000       1.07580000
H       -1.26400000      -0.34280000       1.43950000
H        0.99160000      -0.80410000       2.00260000
H        2.35430000      -1.97950000      -0.02960000
H        0.09760000      -3.64160000      -0.43790000
H        1.39040000      -0.19360000      -1.85910000
