13
Properties=species:S:1:pos:R:3 gdb_130635=T pbc="F F F"
O        0.28260000       0.13670000      -0.00570000
C        0.14430000       1.33480000       0.00500000
C       -1.19170000       2.09660000       0.02890000
C       -0.86640000       3.59850000       0.03770000
C        0.66490000       3.73930000       0.01670000
C        1.19090000       2.36680000      -0.00230000
N        2.46940000       2.08950000      -0.02310000
N        3.56860000       1.85120000      -0.04100000
O        1.28690000       4.77270000       0.01470000
H       -1.77310000       1.78760000      -0.84440000
H       -1.75060000       1.77180000       0.91120000
H       -1.26740000       4.13080000      -0.82960000
H       -1.24140000       4.11480000       0.92600000
