20
Properties=species:S:1:pos:R:3 gdb_16701=T pbc="F F F"
C       -0.14760000       1.50790000       0.03470000
C        0.07440000      -0.00370000       0.05860000
C        1.00400000      -0.56350000      -1.08300000
C        2.03560000      -1.32180000      -0.22890000
C        1.12660000      -2.01970000       0.82870000
C        0.85570000      -0.55010000       1.27490000
C        2.34070000      -0.26100000       0.87620000
O        3.33760000      -0.56310000       1.82290000
H        0.79310000       2.06380000       0.10390000
H       -0.64110000       1.81340000      -0.89430000
H       -0.78340000       1.82650000       0.86810000
H       -0.90560000      -0.49270000       0.01300000
H        0.47040000      -1.21680000      -1.77900000
H        1.46500000       0.24100000      -1.66590000
H        2.83950000      -1.84780000      -0.74540000
H        0.27640000      -2.60650000       0.46790000
H        1.67710000      -2.61750000       1.56030000
H        0.47780000      -0.30230000       2.26840000
H        2.57930000       0.74740000       0.52860000
H        3.16200000      -1.42990000       2.20190000
