20
Properties=species:S:1:pos:R:3 gdb_99667=T pbc="F F F"
C       -0.01950000       1.58370000       0.09500000
C       -0.03730000       0.05430000       0.06240000
C       -1.45670000      -0.55040000      -0.03450000
C       -2.12480000      -0.12570000      -1.27090000
N       -2.64310000       0.19150000      -2.25440000
C       -1.44310000      -2.08490000       0.04720000
C       -1.15620000      -2.69050000       1.44070000
O       -2.46060000      -3.29510000       1.49900000
C       -2.80890000      -2.79300000       0.19190000
H        1.00600000       1.95630000       0.16860000
H       -0.46680000       2.00380000      -0.81080000
H       -0.57760000       1.96870000       0.95530000
H        0.55740000      -0.31220000      -0.78230000
H        0.42730000      -0.34490000       0.97130000
H       -2.05850000      -0.16640000       0.80150000
H       -0.81770000      -2.48670000      -0.75320000
H       -0.35280000      -3.43600000       1.47770000
H       -1.00130000      -1.96450000       2.25090000
H       -3.68370000      -2.13110000       0.22170000
H       -3.00140000      -3.60140000      -0.52250000
