21
Properties=species:S:1:pos:R:3 gdb_38753=T pbc="F F F"
C       -0.02780000       1.56620000      -0.14370000
C        1.52100000       1.58760000      -0.02200000
C        2.06860000       1.79770000       1.39910000
C        1.90950000       0.40320000       2.04840000
C        0.47090000       0.11780000       2.54680000
C       -0.39300000      -0.50450000       1.42490000
C       -0.02100000       0.01930000       0.03480000
C        1.53610000       0.02740000      -0.13710000
O        2.23600000      -0.49450000       0.97830000
H       -0.58270000       2.14550000       0.60110000
H       -0.37330000       1.87030000      -1.13500000
H        2.05900000       2.16990000      -0.77120000
H        3.13190000       2.05130000       1.35390000
H        1.55340000       2.58790000       1.95280000
H        2.63960000       0.23380000       2.84340000
H        0.49960000      -0.56950000       3.39800000
H        0.02410000       1.04750000       2.91640000
H       -0.23810000      -1.58870000       1.42510000
H       -1.45690000      -0.33750000       1.62620000
H       -0.57130000      -0.52970000      -0.73390000
H        1.93190000      -0.43420000      -1.04250000
