17
Properties=species:S:1:pos:R:3 gdb_67202=T pbc="F F F"
C       -0.00540000       1.58840000      -0.18210000
C        0.01910000       0.10410000      -0.04230000
C        0.05680000      -1.03690000      -1.00830000
N        1.26350000      -1.60970000      -0.41430000
C        0.89900000      -0.88950000       0.82630000
C       -0.44050000      -1.55550000       1.33260000
C       -0.94220000      -0.94910000       2.55520000
N       -1.32250000      -0.46390000       3.53400000
C       -1.06180000      -0.96010000       0.06650000
H        0.96900000       1.97290000      -0.50170000
H       -0.74650000       1.88980000      -0.92980000
H       -0.27040000       2.07290000       0.76360000
H       -0.15890000      -1.06030000      -2.06930000
H        1.25870000      -2.62700000      -0.31750000
H        1.69030000      -0.64890000       1.53310000
H       -0.42130000      -2.64670000       1.44390000
H       -2.11320000      -0.88040000      -0.17670000
