16
Properties=species:S:1:pos:R:3 gdb_106868=T pbc="F F F"
O        0.14530000       1.40730000       0.16400000
C        0.07770000       0.01280000      -0.09420000
C       -1.33430000      -0.49480000      -0.07060000
C       -2.04350000      -0.96960000       1.18020000
C       -1.89880000      -1.91220000       0.01470000
O       -2.90020000      -1.65760000      -0.96650000
C       -2.37250000      -0.31370000      -1.17690000
C       -1.26440000      -3.19050000       0.06420000
N       -0.73560000      -4.21820000       0.11820000
H       -0.17530000       1.55790000       1.05960000
H        0.51060000      -0.12270000      -1.09060000
H        0.69220000      -0.56740000       0.61100000
H       -1.39360000      -1.17240000       2.02610000
H       -3.04460000      -0.62710000       1.42590000
H       -3.13650000       0.45670000      -1.03640000
H       -1.93010000      -0.23110000      -2.17510000
