19
Properties=species:S:1:pos:R:3 gdb_91039=T pbc="F F F"
C       -0.24770000       1.57560000      -0.03210000
C        0.03710000       0.08030000      -0.02050000
C        1.17590000      -0.49240000      -0.93430000
C        1.77920000      -1.25120000       0.28570000
C        2.88670000      -0.51510000       1.07940000
O        2.64870000       0.89680000       0.96750000
C        1.89530000       0.16150000       1.93430000
C        0.72480000      -0.58430000       1.21450000
O       -0.02580000      -1.40530000       2.06180000
H        0.66830000       2.14910000       0.12670000
H       -0.68080000       1.88290000      -0.99040000
H       -0.96500000       1.84970000       0.75110000
H       -0.88730000      -0.48140000      -0.19580000
H        0.82640000      -1.14130000      -1.73960000
H        1.83690000       0.27060000      -1.34810000
H        1.85720000      -2.33680000       0.25100000
H        3.90880000      -0.81840000       1.27640000
H        1.94090000       0.49410000       2.96710000
H       -0.58430000      -0.84250000       2.61080000
