16
Properties=species:S:1:pos:R:3 gdb_35927=T pbc="F F F"
N       -0.05400000      -1.14580000      -0.06570000
C       -0.04620000       0.00690000      -0.00000000
C       -0.00260000       1.47660000       0.03170000
O       -0.71950000       1.90940000       1.18130000
C       -0.57890000       3.30200000       1.35340000
O        0.70770000       3.65350000       1.77830000
C        1.71900000       3.18440000       0.92630000
C        2.31530000       1.83810000       1.23320000
C        1.42600000       2.00550000       0.02440000
H       -0.51590000       1.84270000      -0.87320000
H       -0.83470000       3.81610000       0.40980000
H       -1.26630000       3.59360000       2.14800000
H        2.35840000       3.98180000       0.55860000
H        3.37410000       1.67830000       1.06660000
H        1.89590000       1.32610000       2.09200000
H        1.89420000       1.99380000      -0.95390000
