18
Properties=species:S:1:pos:R:3 gdb_19020=T pbc="F F F"
C       -0.05730000       1.43250000       0.03450000
C        0.05920000      -0.07620000      -0.02820000
C        0.76790000      -0.66010000      -1.22070000
C        1.42290000      -0.67150000       0.17720000
C        1.35910000      -2.21360000       0.16700000
O        0.16490000      -2.82760000       0.72000000
C       -0.42930000      -2.95510000      -0.59980000
C        0.75350000      -2.20680000      -1.24730000
H        0.82580000       1.91880000      -0.39390000
H       -0.93310000       1.78340000      -0.52190000
H       -0.15750000       1.77640000       1.06930000
H       -0.78420000      -0.60880000       0.40070000
H        1.01490000      -0.04200000      -2.07620000
H        2.25150000      -0.08460000       0.55730000
H        2.27340000      -2.74440000       0.44310000
H       -0.50810000      -4.00920000      -0.89400000
H       -1.41980000      -2.48920000      -0.65960000
H        1.25560000      -2.66550000      -2.09750000
