17
Properties=species:S:1:pos:R:3 gdb_45223=T pbc="F F F"
O        0.00180000      -0.03940000       0.03090000
C        0.00400000       1.16920000      -0.02910000
N       -1.11160000       1.97690000      -0.05540000
C       -0.84690000       3.39650000       0.01100000
C       -0.48150000       3.98050000       1.41220000
N        0.98620000       3.96500000       1.10080000
C        1.61680000       2.62680000       1.36020000
C        1.22070000       2.09450000      -0.05560000
C        0.66950000       3.51030000      -0.31070000
H       -2.02040000       1.57490000       0.11550000
H       -1.55960000       3.96980000      -0.58530000
H       -0.82770000       5.00850000       1.55830000
H       -0.77830000       3.37710000       2.27620000
H        2.69710000       2.73190000       1.49090000
H        1.21250000       2.08130000       2.21910000
H        2.02230000       1.69060000      -0.67150000
H        1.00940000       4.11320000      -1.15330000
