18
Properties=species:S:1:pos:R:3 gdb_18343=T pbc="F F F"
C       -0.08250000       1.43480000      -0.06200000
C       -0.01920000      -0.04630000       0.11750000
C       -0.98390000      -0.93480000       0.34000000
C       -2.39930000      -1.27950000      -0.07830000
C       -1.73680000      -2.50610000      -0.81690000
C       -0.48390000      -2.32200000       0.11900000
O        0.84490000      -2.20550000      -0.35300000
C        1.26060000      -0.84950000      -0.11460000
H        0.50440000       1.95810000       0.70400000
H        0.33100000       1.73810000      -1.03250000
H       -1.11110000       1.79960000       0.00370000
H       -3.04200000      -1.60580000       0.74520000
H       -2.93960000      -0.54640000      -0.68070000
H       -2.26380000      -3.46220000      -0.76930000
H       -1.48600000      -2.26060000      -1.85050000
H       -0.52910000      -3.01340000       0.97320000
H        1.80100000      -0.48290000      -0.99890000
H        1.96360000      -0.81450000       0.73440000
