15
Properties=species:S:1:pos:R:3 gdb_128006=T pbc="F F F"
C        0.08220000       1.45050000       0.00170000
N        0.23490000       0.00910000       0.08930000
C        0.69460000      -0.63250000      -0.89160000
O        1.13950000       0.00300000      -2.04450000
N        1.21970000      -0.75060000      -3.27900000
N        1.16370000      -1.97160000      -3.21310000
C        1.06300000      -2.63130000      -1.93900000
C        1.24400000      -4.10860000      -2.02000000
N        0.82240000      -2.01890000      -0.84840000
H        1.01630000       1.94580000       0.29690000
H       -0.17710000       1.80570000      -1.00270000
H       -0.69110000       1.76320000       0.70770000
H        2.21770000      -4.34360000      -2.46360000
H        1.17030000      -4.54880000      -1.02640000
H        0.48470000      -4.54220000      -2.67990000
