18
Properties=species:S:1:pos:R:3 gdb_32868=T pbc="F F F"
C        1.49700000       0.54540000      -0.85140000
N        0.22180000       0.40370000      -0.15470000
C       -0.71130000      -0.52020000      -0.79700000
C       -0.24660000      -1.94390000      -0.89870000
N        0.04370000      -2.62770000      -1.96510000
C        0.45060000      -3.86870000      -1.49460000
N        0.77140000      -4.87800000      -2.39440000
C        0.39210000      -3.86680000      -0.13620000
O       -0.06160000      -2.62190000       0.25330000
H        2.05050000      -0.39620000      -1.00000000
H        1.32000000       0.98280000      -1.84040000
H        2.13510000       1.23440000      -0.29080000
H        0.38500000       0.09750000       0.79890000
H       -1.65440000      -0.49020000      -0.23940000
H       -0.91480000      -0.17440000      -1.81460000
H        1.05560000      -4.50030000      -3.28830000
H        1.44730000      -5.54430000      -2.04870000
H        0.59790000      -4.57620000       0.64470000
