20
Properties=species:S:1:pos:R:3 gdb_113872=T pbc="F F F"
C       -0.17750000       1.38700000      -0.49430000
C       -0.05950000      -0.02230000      -0.14680000
C        0.05040000      -1.18760000       0.13480000
C        0.15090000      -2.60310000       0.48080000
C       -1.21240000      -3.28090000       0.52150000
N       -1.71480000      -3.86400000      -0.72970000
C       -1.43350000      -4.74910000       0.42090000
C       -0.35740000      -5.78070000       0.16700000
O       -0.79290000      -6.73380000      -0.78740000
H        0.79970000       1.88250000      -0.48150000
H       -0.60010000       1.51670000      -1.49690000
H       -0.82640000       1.92000000       0.20960000
H        0.78950000      -3.11640000      -0.24530000
H        0.63470000      -2.71230000       1.46110000
H       -1.93350000      -2.74310000       1.13500000
H       -2.71230000      -3.70150000      -0.82980000
H       -2.29580000      -5.13950000       0.95950000
H        0.57430000      -5.29550000      -0.15600000
H       -0.14050000      -6.33720000       1.08500000
H       -1.06070000      -6.22200000      -1.56040000
