18
Properties=species:S:1:pos:R:3 gdb_91684=T pbc="F F F"
O       -0.16120000       1.41090000      -0.00010000
C       -0.03840000      -0.00120000       0.01390000
C        0.41960000      -0.60380000       1.39260000
N       -0.76910000      -1.39100000       1.82820000
C       -1.10940000      -2.06210000       0.50520000
C       -1.42830000      -0.64300000      -0.01530000
C       -1.87550000      -0.38910000       1.46230000
C       -3.20700000      -0.82980000       1.82590000
C       -4.32580000      -1.15740000       2.11950000
H        0.71860000       1.79260000       0.07490000
H        0.58310000      -0.34360000      -0.82520000
H        1.28510000      -1.26680000       1.31430000
H        0.63920000       0.18780000       2.11470000
H       -0.28610000      -2.62180000       0.05140000
H       -1.98710000      -2.69780000       0.61950000
H       -2.06520000      -0.43060000      -0.87360000
H       -1.69000000       0.61740000       1.84550000
H       -5.31020000      -1.45160000       2.38780000
