16
Properties=species:S:1:pos:R:3 gdb_17901=T pbc="F F F"
O        0.03870000       1.52710000      -0.05230000
C        0.02290000       0.13060000       0.03470000
C        0.12600000      -0.60220000       1.39970000
C       -0.62140000       0.14460000       2.49180000
O       -1.80070000       0.76260000       1.99310000
C       -2.38050000       0.16910000       0.83860000
C       -1.34590000      -0.57850000       0.01270000
O       -0.77380000      -1.61630000       0.86370000
H        0.90770000       1.80990000      -0.34920000
H        0.69440000      -0.34220000      -0.68980000
H        1.07870000      -1.01820000       1.74000000
H       -0.86300000      -0.56940000       3.29480000
H       -0.00310000       0.94600000       2.91280000
H       -3.17230000      -0.54300000       1.11920000
H       -2.83030000       0.98410000       0.26060000
H       -1.74990000      -0.97030000      -0.92470000
