16
Properties=species:S:1:pos:R:3 gdb_130174=T pbc="F F F"
N       -0.06780000       1.39230000       0.15090000
C        0.04560000       0.00450000       0.03960000
N       -1.05080000      -0.76240000       0.02330000
N       -0.58650000      -2.04990000      -0.00620000
C        0.75980000      -2.08740000      -0.02480000
C        1.21490000      -0.78210000       0.00470000
C        2.71610000      -0.79960000       0.01000000
C        3.00700000      -2.29460000      -0.02740000
C        1.87130000      -3.02410000      -0.04540000
H        0.58840000       1.89090000      -0.43550000
H       -1.01340000       1.69720000      -0.04470000
H       -1.25300000      -2.80080000      -0.01000000
H        3.17250000      -0.29180000      -0.85130000
H        3.15670000      -0.33610000       0.90340000
H        4.01300000      -2.69460000      -0.03910000
H        1.80000000      -4.10330000      -0.07050000
