19
Properties=species:S:1:pos:R:3 gdb_126539=T pbc="F F F"
C       -0.10340000       1.57580000      -0.00700000
C       -0.08090000       0.04640000      -0.04350000
C        0.79130000      -0.50910000      -1.18680000
C        0.79570000      -2.00500000      -1.26270000
C        1.77340000      -2.88900000      -0.94070000
O        1.37340000      -4.15530000      -1.11460000
N        0.05680000      -4.14550000      -1.59170000
C       -0.27360000      -2.87530000      -1.66530000
N       -1.55320000      -2.48660000      -2.03550000
H        0.90450000       1.98550000       0.12450000
H       -0.50800000       1.99060000      -0.93730000
H       -0.72210000       1.94400000       0.81690000
H        0.29640000      -0.34670000       0.90790000
H       -1.10010000      -0.34300000      -0.14980000
H        0.43930000      -0.08720000      -2.13980000
H        1.82010000      -0.14940000      -1.06760000
H        2.78330000      -2.75950000      -0.58020000
H       -2.07870000      -3.23990000      -2.46030000
H       -1.57860000      -1.65330000      -2.60700000
