20
Properties=species:S:1:pos:R:3 gdb_59219=T pbc="F F F"
C       -0.02250000       1.63130000       0.16090000
C        0.02310000       0.10710000      -0.01020000
C        0.83290000      -0.56160000       1.10970000
C       -1.38990000      -0.47910000      -0.06830000
C       -2.32180000      -0.13810000      -1.24910000
N       -1.66040000      -0.65440000      -2.45240000
C       -2.50400000      -1.58390000      -1.61710000
C       -1.60660000      -1.97660000      -0.46310000
O       -1.30470000      -3.01640000       0.04630000
H        0.98840000       2.05170000       0.17630000
H       -0.57000000       2.11230000      -0.65640000
H       -0.51130000       1.90810000       1.10310000
H        0.50440000      -0.11470000      -0.96960000
H        1.86870000      -0.20720000       1.10470000
H        0.40720000      -0.32810000       2.09350000
H        0.83910000      -1.64940000       1.00130000
H       -1.90970000      -0.32580000       0.88820000
H       -3.06500000       0.64700000      -1.29570000
H       -2.23650000      -0.41330000      -3.25940000
H       -3.34230000      -2.11000000      -2.05550000
