22
Properties=species:S:1:pos:R:3 gdb_116065=T pbc="F F F"
C       -0.01530000       1.55390000       0.02510000
C       -0.01700000       0.02370000       0.06650000
C       -1.40890000      -0.59100000      -0.04580000
C       -1.40370000      -2.11570000      -0.10500000
C       -2.83770000      -2.64790000      -0.06720000
C       -3.53310000      -2.13530000       1.19900000
C       -3.38260000      -0.64440000       1.39160000
N       -4.30470000       0.04980000       1.91290000
O       -2.16680000      -0.09780000       1.08360000
H        1.00160000       1.94600000       0.12000000
H       -0.42870000       1.92390000      -0.91980000
H       -0.61800000       1.96420000       0.83870000
H        0.59210000      -0.37540000      -0.75380000
H        0.43860000      -0.32910000       0.99990000
H       -1.89980000      -0.20680000      -0.95490000
H       -0.88810000      -2.43070000      -1.01880000
H       -0.83190000      -2.51130000       0.74470000
H       -3.38060000      -2.30530000      -0.95750000
H       -2.85250000      -3.74190000      -0.08890000
H       -4.59780000      -2.37190000       1.21980000
H       -3.07660000      -2.61920000       2.07370000
H       -3.99810000       1.02240000       1.99280000
