16
Properties=species:S:1:pos:R:3 gdb_35411=T pbc="F F F"
N       -0.31170000      -1.17320000      -0.31950000
C       -0.16830000      -0.04160000      -0.13270000
C        0.00770000       1.39870000       0.05710000
O       -0.16350000       1.84790000       1.42230000
C        1.08400000       2.60860000       1.37050000
C        2.32750000       1.95080000       1.99490000
C        2.27770000       0.46420000       1.82540000
C        2.63180000       1.29600000       0.62510000
C        1.42810000       2.02470000      -0.00750000
H       -0.69820000       1.91440000      -0.60730000
H        0.92820000       3.67110000       1.56240000
H        2.99690000       2.43960000       2.69160000
H        3.12230000      -0.06640000       2.25280000
H        1.33720000      -0.06700000       1.90670000
H        3.58450000       1.18280000       0.12420000
H        1.65470000       2.64720000      -0.87020000
