17
Properties=species:S:1:pos:R:3 gdb_73300=T pbc="F F F"
O        0.10890000       1.34840000       0.07780000
C        0.06970000      -0.03010000       0.07370000
C        0.98340000      -0.74240000       1.05920000
C        0.63650000      -2.22690000       0.73280000
C       -0.39660000      -2.02620000      -0.36530000
O       -0.94570000      -3.16570000      -0.91490000
C       -1.29030000      -0.79140000      -0.02530000
O       -1.39460000      -0.45080000      -1.46340000
C        0.02560000      -0.82520000      -1.26980000
H       -0.52170000       1.63740000      -0.59690000
H        2.03350000      -0.49850000       0.87790000
H        0.75070000      -0.46560000       2.09100000
H        1.49640000      -2.79790000       0.37220000
H        0.21350000      -2.76500000       1.58530000
H       -1.57340000      -2.86450000      -1.58690000
H       -2.19330000      -0.71400000       0.58220000
H        0.68420000      -0.78790000      -2.13890000
