17
Properties=species:S:1:pos:R:3 gdb_20169=T pbc="F F F"
C       -0.04630000       1.49950000      -0.03500000
C        1.50700000       1.54510000       0.02560000
C        2.12440000       1.88420000       1.37790000
O        1.79630000       0.80870000       2.26030000
C        1.44540000      -0.35600000       1.52180000
C       -0.08460000      -0.55330000       1.36900000
N       -0.07310000      -0.00500000      -0.02790000
C        1.44840000       0.00270000       0.01680000
H       -0.57510000       1.96630000       0.80370000
H       -0.46230000       1.88760000      -0.96900000
H        2.00080000       2.04560000      -0.80840000
H        3.21740000       1.98420000       1.29150000
H        1.73160000       2.81130000       1.81080000
H        2.03360000      -1.20710000       1.87720000
H       -0.38420000      -1.60590000       1.35050000
H       -0.70730000      -0.00940000       2.08550000
H        2.00520000      -0.59730000      -0.70350000
