19
Properties=species:S:1:pos:R:3 gdb_75440=T pbc="F F F"
C       -0.00040000       1.53260000       0.04500000
C       -0.00010000       0.03160000      -0.02630000
C        0.00870000      -0.64770000      -1.17360000
C       -0.03480000      -2.14910000      -1.23390000
O       -0.34050000      -2.75460000       0.00980000
C        0.40450000      -2.18270000       1.07920000
C       -0.00970000      -0.71470000       1.28840000
C        0.19860000      -2.99170000       2.27650000
C        0.03950000      -3.62230000       3.28620000
H        0.88450000       1.90510000       0.57710000
H       -0.01700000       1.98440000      -0.95050000
H       -0.87310000       1.90010000       0.60040000
H        0.04670000      -0.12730000      -2.12790000
H       -0.81740000      -2.48340000      -1.92520000
H        0.92250000      -2.54090000      -1.62640000
H        1.47830000      -2.20250000       0.82250000
H        0.67770000      -0.24360000       2.00210000
H       -1.00560000      -0.67990000       1.74800000
H       -0.10090000      -4.19260000       4.17100000
