16
Properties=species:S:1:pos:R:3 gdb_13654=T pbc="F F F"
C       -0.05650000       1.52670000      -0.14010000
C        0.02420000       0.02400000      -0.01740000
C        1.31850000      -0.70120000      -0.18710000
C        0.67770000      -0.64120000       1.20190000
C        1.28000000       0.14350000       2.22630000
C        1.78040000       0.79560000       3.11600000
C        2.38980000       1.59590000       4.13880000
O        2.43020000       1.30630000       5.31460000
H        0.84300000       2.00600000       0.25540000
H       -0.16340000       1.81980000      -1.18980000
H       -0.91540000       1.92350000       0.41060000
H       -0.85940000      -0.50720000      -0.36050000
H        1.33040000      -1.66910000      -0.67510000
H        2.21570000      -0.10910000      -0.32880000
H        0.20820000      -1.55760000       1.54630000
H        2.84130000       2.53790000       3.76310000
