15
Properties=species:S:1:pos:R:3 gdb_18002=T pbc="F F F"
O       -0.71030000       0.78160000       0.29940000
C        0.35250000       0.71600000      -0.26140000
C        1.45440000       1.73780000      -0.05700000
O        2.74890000       1.29550000      -0.53380000
C        2.91020000       2.46240000      -1.36730000
C        2.44880000       2.26340000      -2.82530000
N        1.03560000       2.50480000      -2.40630000
C        1.46860000       2.92530000      -1.05050000
H        0.60810000      -0.09380000      -0.97580000
H        1.49170000       2.03670000       0.99790000
H        3.83920000       2.99790000      -1.16480000
H        2.85600000       3.02880000      -3.49820000
H        2.62950000       1.27230000      -3.25270000
H        0.56230000       3.22870000      -2.93150000
H        1.15690000       3.90840000      -0.69860000
