17
Properties=species:S:1:pos:R:3 gdb_31168=T pbc="F F F"
N       -0.11530000       1.46900000       0.36370000
C       -0.05490000       0.08200000       0.10700000
C       -1.09940000      -0.80920000       0.08940000
N       -0.55760000      -2.08680000      -0.08030000
C        0.78880000      -1.98570000      -0.18770000
O        1.54040000      -3.08920000      -0.39230000
C        1.16250000      -0.66060000      -0.07140000
C        2.58640000      -0.20810000      -0.08280000
O        3.38840000      -1.02470000      -0.96580000
H        0.48210000       1.99900000      -0.26120000
H       -1.05890000       1.82530000       0.27070000
H       -2.15940000      -0.66600000       0.21310000
H       -1.07360000      -2.93910000      -0.20550000
H        2.43550000      -2.75490000      -0.57730000
H        2.67380000       0.85270000      -0.35890000
H        3.07610000      -0.31790000       0.89260000
H        3.02430000      -0.90910000      -1.85160000
