20
Properties=species:S:1:pos:R:3 gdb_57275=T pbc="F F F"
C       -0.08990000       1.51490000      -0.09630000
C        0.01650000      -0.02000000       0.03250000
C        0.69430000      -0.42050000       1.35990000
C       -1.33630000      -0.60010000      -0.01140000
N       -2.39130000      -1.07220000      -0.03150000
C        0.83950000      -0.56810000      -1.15420000
C        0.80000000      -2.08020000      -1.46820000
C        0.21690000      -1.63420000      -2.82430000
O        0.25220000      -0.24220000      -2.42630000
H        0.90940000       1.95670000      -0.02960000
H       -0.52830000       1.78620000      -1.05840000
H       -0.70600000       1.93150000       0.70460000
H        0.12630000      -0.04180000       2.21330000
H        0.77200000      -1.50670000       1.45780000
H        1.70140000       0.00560000       1.40160000
H        1.85210000      -0.14790000      -1.06660000
H        1.77070000      -2.57510000      -1.50610000
H        0.11770000      -2.66110000      -0.84570000
H        0.85430000      -1.81870000      -3.69640000
H       -0.80370000      -1.96440000      -3.04070000
