17
Properties=species:S:1:pos:R:3 gdb_20240=T pbc="F F F"
C       -0.03050000       1.55800000      -0.10250000
C        1.42940000       1.95140000       0.05360000
C        2.15810000       1.40940000       1.26750000
C        1.35750000       0.52540000       2.20990000
C        0.71010000      -0.48120000       1.27290000
C       -0.00380000       0.04980000       0.08410000
N        1.38130000      -0.48060000      -0.05710000
C        2.26190000       0.69420000      -0.06090000
H       -0.69010000       2.05380000       0.62010000
H       -0.39190000       1.81300000      -1.10470000
H        1.77340000       2.88930000      -0.36800000
H        2.99030000       1.98400000       1.65880000
H        2.02160000       0.01660000       2.91710000
H        0.61650000       1.08110000       2.79750000
H        0.44140000      -1.45830000       1.66500000
H       -0.78600000      -0.54520000      -0.37940000
H        3.17030000       0.61190000      -0.64280000
