18
Properties=species:S:1:pos:R:3 gdb_37372=T pbc="F F F"
C       -0.01470000       1.53350000       0.00280000
O        1.29770000       2.08310000      -0.07110000
C        2.12510000       1.47540000      -1.05890000
C        2.05530000      -0.05410000      -0.95990000
O        0.68410000      -0.41690000      -1.17090000
C        0.03970000       0.00060000       0.04020000
C        0.99860000      -0.46790000       1.12980000
N        1.63280000      -1.76540000       0.81490000
C        2.32290000      -0.50390000       0.47270000
H       -0.46780000       1.95530000       0.90630000
H       -0.61630000       1.83710000      -0.86770000
H        1.80900000       1.77130000      -2.07100000
H        3.13620000       1.85740000      -0.88190000
H        2.65540000      -0.54660000      -1.73000000
H       -0.95700000      -0.44850000       0.06250000
H        0.86540000      -0.14880000       2.15710000
H        2.04710000      -2.13120000       1.66980000
H        3.23490000      -0.21310000       0.98150000
