23
Properties=species:S:1:pos:R:3 gdb_77975=T pbc="F F F"
C        0.17560000       2.02560000       0.79500000
C        0.17580000       0.51470000       0.69780000
C        1.21440000      -0.35430000       0.01130000
C        2.62810000       0.15150000      -0.30190000
C        2.73770000       1.24270000      -1.37890000
C        3.15450000       0.54010000       1.06860000
C        2.31220000       0.20420000       2.04720000
C        1.05070000      -0.41510000       1.52890000
C        0.44490000      -1.58090000       2.27640000
H        1.16280000       2.42530000       1.03480000
H       -0.15570000       2.48030000      -0.14520000
H       -0.51560000       2.35540000       1.57950000
H       -0.82750000       0.11220000       0.56130000
H        0.83120000      -1.16090000      -0.60590000
H        3.21700000      -0.70620000      -0.66440000
H        2.19120000       2.14720000      -1.10220000
H        3.78480000       1.51980000      -1.54380000
H        2.33560000       0.88570000      -2.33250000
H        4.10900000       1.03950000       1.20140000
H        2.48410000       0.36410000       3.10710000
H        0.10780000      -1.28160000       3.27650000
H       -0.42340000      -1.98220000       1.74420000
H        1.16750000      -2.39560000       2.40170000
