14
Properties=species:S:1:pos:R:3 gdb_5651=T pbc="F F F"
C       -0.05480000       1.53330000       0.01090000
C        1.43380000       1.86940000      -0.00180000
C        2.19020000       0.74950000      -0.01500000
C        1.26760000      -0.36640000      -0.01200000
C       -0.03710000       0.03200000       0.00280000
C       -0.81050000      -1.16680000       0.00390000
C        0.10060000      -2.18610000      -0.01030000
O        1.39040000      -1.70980000      -0.02030000
H       -0.54750000       1.95720000       0.89570000
H       -0.56450000       1.96650000      -0.85960000
H        1.80400000       2.88590000       0.00000000
H        3.26980000       0.69060000      -0.02590000
H       -1.88320000      -1.28590000       0.01370000
H        0.00780000      -3.25940000      -0.01500000
