15
Properties=species:S:1:pos:R:3 gdb_51712=T pbc="F F F"
O       -0.57100000       0.63720000       0.70380000
C        0.12410000       0.89150000      -0.24510000
C        1.37100000       1.75610000      -0.16620000
C        1.32120000       2.95390000      -1.12100000
C        2.62630000       3.77400000      -1.16560000
O        3.26830000       3.31450000      -2.35550000
C        2.37860000       2.64960000      -3.13620000
O        2.59730000       2.25100000      -4.23260000
O        1.19530000       2.50100000      -2.47740000
H       -0.10920000       0.50250000      -1.25810000
H        1.48600000       2.10370000       0.86480000
H        2.24110000       1.13810000      -0.42830000
H        0.45410000       3.58180000      -0.90210000
H        2.44070000       4.84940000      -1.24920000
H        3.28290000       3.58360000      -0.31430000
