16
Properties=species:S:1:pos:R:3 gdb_15548=T pbc="F F F"
O        0.12760000       1.44060000      -0.17430000
C        0.13350000       0.02290000       0.00680000
C        0.54380000      -0.37030000       1.40340000
C       -0.46080000      -0.90700000       2.09490000
C       -1.72380000      -1.04840000       1.28510000
C       -1.28910000      -0.63560000      -0.13850000
C       -2.23400000       0.31100000      -0.84980000
O       -3.21760000       0.80060000      -0.35420000
H       -0.29080000       1.82980000       0.60270000
H        0.81840000      -0.34020000      -0.76510000
H        1.53570000      -0.15100000       1.78190000
H       -0.40610000      -1.21260000       3.13460000
H       -2.11780000      -2.07030000       1.31010000
H       -2.52670000      -0.39990000       1.65600000
H       -1.18360000      -1.52030000      -0.77850000
H       -1.94920000       0.54040000      -1.89870000
