17
Properties=species:S:1:pos:R:3 gdb_47017=T pbc="F F F"
O        0.00790000      -0.06260000       0.07880000
C       -0.00340000       1.15070000       0.06550000
C       -1.33020000       1.93210000       0.13310000
C       -1.22210000       3.34240000       0.75710000
C       -0.14780000       4.05940000      -0.04190000
O        0.57440000       5.18470000       0.53780000
C        1.85390000       4.55620000       0.24140000
C        1.12710000       3.27320000      -0.06200000
C        1.24610000       1.95110000       0.02770000
H       -1.70480000       2.01670000      -0.89730000
H       -2.04330000       1.30180000       0.66920000
H       -2.18680000       3.85820000       0.72920000
H       -0.90350000       3.27480000       1.80280000
H       -0.52580000       4.33340000      -1.03920000
H        2.35310000       5.03500000      -0.61210000
H        2.53290000       4.54820000       1.10110000
H        2.18520000       1.42160000       0.15130000
