23
Properties=species:S:1:pos:R:3 gdb_102306=T pbc="F F F"
C        0.15470000       1.18680000       0.60880000
C        0.12800000      -0.27750000       0.16790000
C        0.62070000      -0.47110000      -1.27520000
O        1.97280000      -0.04220000      -1.31620000
C        2.57200000       0.04800000      -2.61290000
C        2.14710000       1.32880000      -3.33550000
C        4.07840000      -0.01440000      -2.38760000
C        0.47460000      -1.86970000      -1.70670000
C        0.35070000      -3.01650000      -2.04640000
H        1.16500000       1.59420000       0.52960000
H       -0.50730000       1.80060000      -0.01270000
H       -0.17790000       1.28540000       1.64630000
H        0.76220000      -0.88670000       0.82080000
H       -0.88650000      -0.68420000       0.23620000
H        0.00190000       0.15640000      -1.93810000
H        2.26280000      -0.82510000      -3.20580000
H        2.61990000       1.38450000      -4.32140000
H        1.06460000       1.37180000      -3.48820000
H        2.44730000       2.20880000      -2.75750000
H        4.34930000      -0.94400000      -1.88100000
H        4.61390000       0.03590000      -3.34050000
H        4.40440000       0.82400000      -1.76350000
H        0.24140000      -4.02850000      -2.34950000
