17
Properties=species:S:1:pos:R:3 gdb_61954=T pbc="F F F"
O       -0.14150000       1.37730000      -0.01490000
C       -0.01640000      -0.03230000       0.00420000
C        0.67380000      -0.56700000      -1.25730000
C       -0.06400000      -0.11500000      -2.53200000
C        0.62660000      -0.52910000      -3.74980000
N        1.19010000      -0.86500000      -4.70100000
C        0.71130000      -0.52650000       1.27450000
C        0.06650000      -0.07560000       2.50510000
N       -0.44500000       0.27210000       3.48050000
H        0.73850000       1.76910000       0.03670000
H       -1.04890000      -0.39940000       0.03530000
H        1.71000000      -0.20650000      -1.28880000
H        0.72110000      -1.66070000      -1.22350000
H       -1.08040000      -0.52540000      -2.54770000
H       -0.16640000       0.97450000      -2.52550000
H        0.75530000      -1.62140000       1.27810000
H        1.75000000      -0.17090000       1.26740000
