17
Properties=species:S:1:pos:R:3 gdb_36432=T pbc="F F F"
C       -0.58090000      -0.38200000       0.83610000
C       -0.08400000       0.27340000      -0.04020000
C        0.55030000       1.08370000      -1.07160000
C        1.78930000       1.80300000      -0.54540000
O        2.51980000       2.50170000      -1.59360000
C        2.50540000       3.73700000      -0.85400000
C        1.29080000       4.61290000      -1.18230000
O        0.48040000       3.90190000      -0.20600000
C        1.60570000       3.12080000       0.23460000
H       -1.03490000      -0.96450000       1.59880000
H        0.85330000       0.45720000      -1.91930000
H       -0.15160000       1.83360000      -1.45140000
H        2.45370000       1.09940000      -0.02720000
H        3.49380000       4.18300000      -0.73690000
H        1.39350000       5.67090000      -0.90990000
H        0.90780000       4.51930000      -2.20350000
H        1.74150000       3.13290000       1.31630000
