24
Properties=species:S:1:pos:R:3 gdb_122532=T pbc="F F F"
C        0.06900000       1.56740000       0.02240000
C        0.05330000       0.06000000       0.20850000
O       -1.27130000      -0.40410000       0.03040000
C       -1.39860000      -1.79960000       0.19640000
C       -2.82470000      -2.27120000      -0.01340000
C       -3.96450000      -1.31720000      -0.10760000
N       -3.56940000      -2.12250000      -1.26160000
C       -2.95800000      -1.43670000      -2.40040000
C       -4.04000000      -0.98420000      -3.37780000
H        1.08140000       1.95770000       0.16280000
H       -0.26910000       1.83490000      -0.98280000
H       -0.59290000       2.05040000       0.74670000
H        0.72710000      -0.42850000      -0.51520000
H        0.41320000      -0.21030000       1.21560000
H       -0.72090000      -2.32820000      -0.49760000
H       -1.09100000      -2.08770000       1.21660000
H       -2.99580000      -3.23510000       0.46600000
H       -4.92670000      -1.55680000       0.33840000
H       -3.70370000      -0.26140000      -0.11120000
H       -2.34120000      -0.58110000      -2.09270000
H       -2.29290000      -2.15590000      -2.89550000
H       -3.59340000      -0.51620000      -4.26090000
H       -4.64750000      -1.83420000      -3.70150000
H       -4.70670000      -0.25260000      -2.90910000
