17
Properties=species:S:1:pos:R:3 gdb_115253=T pbc="F F F"
C       -0.04710000       1.53700000       0.06790000
C       -0.01990000       0.01100000      -0.03340000
C        0.74020000      -0.49980000      -1.26270000
C        0.80980000      -2.04950000      -1.36480000
O        0.26430000      -2.35180000      -2.67570000
C       -0.12010000      -1.15400000      -3.17510000
N        0.08010000      -0.08670000      -2.51910000
C       -0.74770000      -1.20330000      -4.46750000
N       -1.25150000      -1.24450000      -5.50580000
H        0.96620000       1.94470000       0.15200000
H       -0.51160000       1.97530000      -0.81870000
H       -0.61060000       1.85910000       0.94820000
H        0.45310000      -0.41920000       0.85890000
H       -1.04220000      -0.38600000      -0.06860000
H        1.74580000      -0.06090000      -1.26160000
H        1.82350000      -2.45270000      -1.32290000
H        0.18800000      -2.55430000      -0.61890000
