19
Properties=species:S:1:pos:R:3 gdb_104107=T pbc="F F F"
C       -0.33100000       1.68440000       0.00100000
C        0.04780000       0.20190000       0.02580000
C       -1.21060000      -0.67860000      -0.03370000
O       -1.90240000      -0.39090000      -1.23830000
C        0.99860000      -0.18110000      -1.13190000
O        1.79440000      -1.28100000      -0.65800000
C        1.80290000      -1.32170000       0.70240000
O        2.44350000      -2.12320000       1.31710000
C        0.89650000      -0.21640000       1.23690000
H        0.56050000       2.31890000       0.03370000
H       -0.89590000       1.92340000      -0.90350000
H       -0.95760000       1.93950000       0.86230000
H       -0.92050000      -1.73970000       0.01250000
H       -1.83700000      -0.46570000       0.84710000
H       -2.63890000      -1.00280000      -1.32210000
H        0.46130000      -0.50670000      -2.02330000
H        1.66670000       0.64700000      -1.39650000
H        1.53050000       0.60620000       1.58720000
H        0.32710000      -0.57730000       2.09650000
