20
Properties=species:S:1:pos:R:3 gdb_14773=T pbc="F F F"
C       -0.06440000       1.52780000       0.07990000
C       -0.00830000       0.00990000       0.05630000
O       -1.32910000      -0.48940000      -0.01130000
C       -1.39520000      -1.89540000      -0.04040000
C       -2.85950000      -2.30680000      -0.13070000
C       -3.03580000      -3.83310000      -0.16280000
C       -4.49420000      -4.23050000      -0.12890000
O       -5.03400000      -4.95270000      -0.92580000
H        0.94520000       1.94600000       0.13190000
H       -0.55210000       1.90740000      -0.82240000
H       -0.63070000       1.87730000       0.94780000
H        0.57570000      -0.34310000      -0.81080000
H        0.49690000      -0.37330000       0.95950000
H       -0.83190000      -2.29280000      -0.90300000
H       -0.93420000      -2.32530000       0.86700000
H       -3.39470000      -1.88230000       0.72710000
H       -3.29700000      -1.85810000      -1.02940000
H       -2.57370000      -4.28100000      -1.04740000
H       -2.55910000      -4.27080000       0.72740000
H       -5.06560000      -3.78820000       0.72180000
