18
Properties=species:S:1:pos:R:3 gdb_71652=T pbc="F F F"
O       -0.02900000       1.41160000       0.08140000
C        0.03610000       0.01290000      -0.00360000
C        0.33200000      -0.64230000      -1.38950000
C       -0.79270000      -1.65170000      -1.07490000
C       -0.52740000      -2.63840000       0.07880000
C        0.11180000      -2.00000000       1.26020000
C        0.84060000      -0.68490000       1.10350000
N       -1.34900000      -1.83250000       1.07520000
C       -1.35120000      -0.72840000       0.03060000
H        0.86290000       1.76370000      -0.01310000
H        0.03170000       0.02860000      -2.19970000
H        1.34490000      -1.01500000      -1.57150000
H       -1.41330000      -2.04790000      -1.87700000
H       -0.63700000      -3.71630000       0.00810000
H        0.37740000      -2.65340000       2.08640000
H        1.89940000      -0.80250000       0.84840000
H        0.76560000      -0.10790000       2.03230000
H       -2.26120000      -0.13740000      -0.03800000
