18
Properties=species:S:1:pos:R:3 gdb_113412=T pbc="F F F"
O        0.05610000       1.30250000      -0.66250000
C        0.07070000       0.18610000       0.20880000
C       -1.30290000      -0.41690000       0.35390000
O       -1.76460000      -1.13530000      -0.83650000
C       -1.54040000      -1.85430000       0.35060000
C       -0.74500000      -3.16460000       0.49640000
C       -1.32770000      -3.26970000       1.92990000
C       -2.50180000      -2.86050000       1.00290000
N       -1.98680000      -3.92680000       0.03650000
H       -0.30180000       0.99270000      -1.50240000
H        0.77390000      -0.58810000      -0.13290000
H        0.42070000       0.55550000       1.17920000
H       -2.06220000       0.24470000       0.77200000
H        0.25380000      -3.42000000       0.14320000
H       -1.39370000      -4.28790000       2.31180000
H       -0.98870000      -2.54460000       2.67120000
H       -3.55980000      -2.75640000       1.24210000
H       -2.21430000      -3.64220000      -0.92140000
