17
Properties=species:S:1:pos:R:3 gdb_41051=T pbc="F F F"
C        0.00480000       1.49870000       0.22750000
C        1.51160000       1.58400000      -0.23900000
C        1.43610000       0.10650000      -0.66330000
C        1.63070000      -1.28900000      -0.01810000
N        0.64150000      -0.92270000       1.02820000
C        0.05430000      -0.02990000      -0.01230000
C       -0.29970000      -0.80070000      -1.29750000
C        0.86630000      -1.73160000      -1.31720000
N        0.97500000      -0.41840000      -2.02900000
H       -0.19000000       1.79250000       1.25990000
H       -0.69120000       2.02250000      -0.43160000
H        1.72400000       2.27650000      -1.05640000
H        2.21860000       1.76760000       0.57240000
H        2.54580000      -1.80650000       0.27430000
H        0.04350000      -1.68190000       1.35410000
H       -1.23820000      -0.97380000      -1.81340000
H        0.90220000      -2.66820000      -1.85900000
