19
Properties=species:S:1:pos:R:3 gdb_68693=T pbc="F F F"
O       -0.06390000       1.40500000      -0.06100000
C        0.01140000      -0.00230000       0.03250000
C       -1.38870000      -0.62930000       0.06010000
C       -0.99610000      -2.05880000       0.49440000
C       -0.29100000      -2.71800000      -0.71710000
O        0.88660000      -2.01870000      -1.09540000
C        0.74620000      -0.60940000      -1.19240000
C        0.03090000      -1.75150000       1.57740000
C        0.60870000      -0.58060000       1.31330000
H        0.83260000       1.75770000      -0.07260000
H       -2.00630000      -0.13100000       0.81150000
H       -1.89520000      -0.58650000      -0.90930000
H       -1.83680000      -2.67960000       0.81700000
H        0.03840000      -3.73530000      -0.48470000
H       -1.00040000      -2.77210000      -1.56000000
H        0.19750000      -0.31970000      -2.10340000
H        1.76710000      -0.21630000      -1.27000000
H        0.29590000      -2.43960000       2.37160000
H        1.43510000      -0.12160000       1.84440000
