25
Properties=species:S:1:pos:R:3 gdb_77933=T pbc="F F F"
C        1.20750000       1.76530000       0.05640000
C        0.80150000       0.29150000      -0.05910000
C        1.66160000      -0.85540000      -0.70000000
C        2.55790000      -0.85690000       0.58220000
C        3.66610000       0.17740000       0.81050000
C        1.07320000      -0.74440000       1.08120000
C        0.71320000      -1.88340000       0.04200000
C       -0.75220000      -2.03970000      -0.40270000
C        1.21650000      -3.32040000       0.26830000
H        1.63990000       2.14110000      -0.87830000
H        0.31290000       2.36530000       0.25520000
H        1.91170000       1.97720000       0.86000000
H       -0.22030000       0.28520000      -0.43140000
H        2.00090000      -0.91780000      -1.73860000
H        2.99110000      -1.82540000       0.82080000
H        3.67760000       0.53750000       1.84600000
H        4.63680000      -0.29670000       0.62950000
H        3.61450000       1.04560000       0.15480000
H        0.73390000      -0.68200000       2.11990000
H       -1.33960000      -1.12310000      -0.43070000
H       -0.79780000      -2.49250000      -1.40010000
H       -1.26730000      -2.72560000       0.27940000
H        0.72330000      -3.75980000       1.14320000
H        0.94320000      -3.94050000      -0.59300000
H        2.29110000      -3.43020000       0.40700000
