16
Properties=species:S:1:pos:R:3 gdb_20825=T pbc="F F F"
C       -0.14050000       1.54470000      -0.00680000
C        0.05290000       0.01750000      -0.02080000
C        0.75220000      -0.51290000       1.19370000
C        2.03760000      -0.91800000       1.35130000
O        2.27510000      -1.33570000       2.60130000
N        1.09730000      -1.20290000       3.34740000
C        0.20680000      -0.72810000       2.50470000
N       -1.11770000      -0.56020000       2.88010000
H        0.82420000       2.05920000       0.03480000
H       -0.67000000       1.87910000      -0.90420000
H       -0.72110000       1.87260000       0.86260000
H       -0.92510000      -0.47150000      -0.11410000
H        0.62020000      -0.26340000      -0.91460000
H        2.87380000      -0.97320000       0.66990000
H       -1.24710000      -0.62460000       3.88160000
H       -1.55270000       0.27080000       2.50520000
