19
Properties=species:S:1:pos:R:3 gdb_68334=T pbc="F F F"
O       -0.11260000       1.19820000       0.15660000
C        0.03600000      -0.17420000       0.06830000
C        0.70720000      -1.01820000      -1.06150000
C        0.10700000      -2.03290000      -0.04620000
C        0.70030000      -1.15240000       1.09040000
C       -1.17880000      -1.13950000      -0.03300000
C       -2.22730000      -1.24200000       1.07540000
C       -3.15780000      -0.04410000       1.06680000
O       -4.35910000      -0.11400000       1.00650000
H        0.75810000       1.60240000       0.23820000
H        0.24160000      -0.97360000      -2.04920000
H        1.79820000      -0.98170000      -1.12020000
H        0.14200000      -3.11720000      -0.11610000
H        1.79180000      -1.12160000       1.15000000
H        0.25970000      -1.23170000       2.08470000
H       -1.67940000      -1.09670000      -1.00710000
H       -2.83170000      -2.14710000       0.95900000
H       -1.75780000      -1.27700000       2.06630000
H       -2.63810000       0.93770000       1.11910000
