17
Properties=species:S:1:pos:R:3 gdb_1472=T pbc="F F F"
C       -0.10780000       1.55230000      -0.02910000
C        0.01730000       0.02760000      -0.00060000
C        0.75480000      -0.48810000       1.24230000
O        0.12990000      -0.06310000       2.44400000
C        0.91680000      -2.02490000       1.19860000
C        1.66390000      -2.56660000       2.32570000
C        2.29090000      -3.00880000       3.25030000
H        0.87850000       2.02610000      -0.08160000
H       -0.68600000       1.88620000      -0.89560000
H       -0.60010000       1.91360000       0.87740000
H       -0.98220000      -0.43140000      -0.02970000
H        0.54130000      -0.32590000      -0.89770000
H        1.75430000      -0.03840000       1.28110000
H       -0.73820000      -0.47980000       2.49180000
H       -0.08270000      -2.48270000       1.15990000
H        1.41120000      -2.30320000       0.25910000
H        2.84110000      -3.39700000       4.07100000
