15
Properties=species:S:1:pos:R:3 gdb_3350=T pbc="F F F"
C       -0.05170000       1.44730000       0.07390000
O        1.40370000       1.48860000      -0.05240000
C        1.40380000       0.18410000      -0.73700000
C        2.16090000      -1.03520000      -0.19050000
C        1.02030000      -2.10560000      -0.07140000
C       -0.22090000      -1.25130000       0.19700000
C        0.00680000      -0.02350000      -0.25190000
H       -0.39990000       1.72740000       1.07370000
H       -0.52930000       2.09170000      -0.67620000
H        1.55570000       0.34470000      -1.81310000
H        2.99990000      -1.36200000      -0.81080000
H        2.53940000      -0.79520000       0.80800000
H        0.93440000      -2.70230000      -0.98960000
H        1.20410000      -2.81550000       0.74160000
H       -1.07150000      -1.60270000       0.76860000
