15
Properties=species:S:1:pos:R:3 gdb_9736=T pbc="F F F"
O       -0.21380000       1.38650000      -0.18310000
C       -0.00660000      -0.00680000      -0.01130000
C       -1.39530000      -0.66540000      -0.07970000
C       -1.60520000      -0.73270000      -1.59370000
O       -0.32110000      -1.03240000      -2.14180000
C        0.69780000      -0.65090000      -1.23540000
C        0.71800000      -0.26900000       1.24470000
N        1.31100000      -0.45220000       2.21950000
H        0.64400000       1.82020000      -0.25630000
H       -1.35510000      -1.66640000       0.35690000
H       -2.13820000      -0.06740000       0.44950000
H       -2.29870000      -1.52170000      -1.89720000
H       -1.97090000       0.22820000      -1.97880000
H        1.37640000       0.07590000      -1.70150000
H        1.28360000      -1.53050000      -0.93960000
