20
Properties=species:S:1:pos:R:3 gdb_43733=T pbc="F F F"
N        0.62320000       1.03250000       0.60940000
C        0.23770000      -0.02110000       0.04710000
C       -1.10540000      -0.67820000      -0.17590000
C       -0.29160000      -1.76190000      -0.91280000
C       -0.21980000      -3.19040000      -0.35330000
C        0.20860000      -4.09720000      -1.54280000
C        0.48180000      -3.12890000      -2.71770000
C       -0.43420000      -1.93220000      -2.42120000
O        0.95170000      -1.00340000      -0.59990000
H        1.63840000       1.12990000       0.54790000
H       -1.60890000      -1.00180000       0.73720000
H       -1.80160000      -0.10480000      -0.79120000
H        0.48310000      -3.22170000       0.48260000
H       -1.19950000      -3.48420000       0.03630000
H        1.07960000      -4.71180000      -1.30400000
H       -0.60270000      -4.78500000      -1.80200000
H        1.52430000      -2.79420000      -2.69770000
H        0.29900000      -3.58180000      -3.69530000
H       -1.47870000      -2.18180000      -2.65070000
H       -0.17660000      -1.01940000      -2.96420000
