13
Properties=species:S:1:pos:R:3 gdb_23880=T pbc="F F F"
C        0.04000000       1.43880000      -0.07350000
N        0.03610000      -0.01300000      -0.07870000
C       -1.08380000      -0.60040000       0.02400000
N       -2.34560000      -0.05860000       0.09750000
C       -1.09240000      -2.12830000      -0.04310000
F        0.05770000      -2.65490000       0.34220000
F       -2.06900000      -2.62620000       0.75120000
F       -1.35470000      -2.54980000      -1.28800000
H        1.07080000       1.79900000      -0.09200000
H       -0.47740000       1.85310000      -0.95170000
H       -0.44230000       1.85970000       0.82440000
H       -2.42080000       0.92370000       0.30510000
H       -3.07650000      -0.63790000       0.47810000
