17
Properties=species:S:1:pos:R:3 gdb_45486=T pbc="F F F"
O        0.03120000       0.04380000      -0.52260000
C        0.00610000       1.18270000      -0.13150000
C       -1.25930000       2.00370000       0.15490000
C       -0.78580000       3.30990000       0.82090000
C       -0.63630000       3.13930000       2.34050000
O        0.55670000       2.35940000       2.50270000
C        1.41160000       2.70320000       1.44470000
C        0.70220000       3.47700000       0.39690000
C        1.19620000       2.07300000       0.06390000
H       -1.72590000       2.20840000      -0.81610000
H       -1.97720000       1.42740000       0.74430000
H       -1.40220000       4.16980000       0.55630000
H       -0.52270000       4.11300000       2.83980000
H       -1.45960000       2.59420000       2.81020000
H        2.43560000       2.89670000       1.74530000
H        1.07480000       4.37700000      -0.07440000
H        2.08020000       1.88100000      -0.53260000
