20
Properties=species:S:1:pos:R:3 gdb_7351=T pbc="F F F"
C       -0.92060000       1.10670000      -0.38440000
C        0.09570000       0.04900000       0.00090000
O        0.59580000      -0.54000000      -1.21530000
C        1.51880000      -1.51350000      -1.06370000
O        1.93140000      -1.87630000       0.01020000
C        1.92780000      -2.08730000      -2.41240000
C        3.25440000      -2.84130000      -2.30180000
C        0.79400000      -2.98550000      -2.94730000
H       -0.46170000       1.88190000      -1.00440000
H       -1.75050000       0.66590000      -0.94410000
H       -1.32480000       1.57950000       0.51570000
H        0.93570000       0.47200000       0.56110000
H       -0.34540000      -0.73740000       0.62170000
H        2.03470000      -1.23920000      -3.09880000
H        4.05870000      -2.18560000      -1.95710000
H        3.17130000      -3.66340000      -1.58600000
H        3.53890000      -3.25280000      -3.27490000
H       -0.14330000      -2.43000000      -3.03120000
H        1.05520000      -3.37350000      -3.93630000
H        0.63080000      -3.84020000      -2.28230000
