15
Properties=species:S:1:pos:R:3 gdb_112139=T pbc="F F F"
C        0.00570000       1.53150000       0.00820000
C       -0.00430000       0.00060000       0.00280000
C       -1.40830000      -0.57020000       0.00610000
O       -2.11740000      -0.20700000      -1.18200000
C       -2.52300000      -1.31910000      -1.84210000
O       -3.13550000      -1.32630000      -2.86140000
C       -2.02900000      -2.51480000      -1.01850000
O       -2.16660000      -3.67430000      -1.24440000
O       -1.37600000      -1.99840000       0.05070000
H        1.03280000       1.90410000       0.01630000
H       -0.49520000       1.93160000      -0.87700000
H       -0.50050000       1.92980000       0.89390000
H        0.51730000      -0.39350000      -0.87680000
H        0.50610000      -0.39670000       0.88680000
H       -1.99340000      -0.21880000       0.86370000
