18
Properties=species:S:1:pos:R:3 gdb_85564=T pbc="F F F"
C       -0.01840000       1.55720000      -0.04920000
C        0.10870000       0.03530000      -0.00500000
C        0.92780000      -0.56210000      -1.16780000
C        0.90030000      -2.06780000      -1.12820000
N        0.74530000      -2.77030000      -2.16760000
O        0.98570000      -2.63650000       0.11570000
C        1.39470000      -1.82930000       1.21690000
C        0.72910000      -0.45370000       1.29510000
O        0.76330000       0.18030000       2.32110000
H        0.96890000       2.03020000      -0.06730000
H       -0.56530000       1.87240000      -0.94200000
H       -0.54320000       1.92290000       0.83550000
H       -0.89660000      -0.41260000      -0.04530000
H        0.54440000      -0.24530000      -2.13800000
H        1.96580000      -0.20710000      -1.10090000
H        0.75100000      -3.76380000      -1.92650000
H        1.16050000      -2.39390000       2.12140000
H        2.48370000      -1.67340000       1.19770000
