25
Properties=species:S:1:pos:R:3 gdb_122212=T pbc="F F F"
C       -0.38900000       1.47420000       0.01190000
C        0.03820000       0.00520000       0.06990000
C        0.66710000      -0.49040000      -1.23700000
C        1.09700000      -1.96320000      -1.17100000
C        1.59330000      -2.52570000      -2.49450000
C        2.87670000      -1.91310000      -3.04140000
C        3.37740000      -2.49550000      -4.36530000
C        1.17120000      -3.88260000      -2.87830000
O        0.54850000      -2.73410000      -3.46270000
H        0.46670000       2.12820000      -0.19000000
H       -1.12500000       1.64060000      -0.78250000
H       -0.83900000       1.79760000       0.95580000
H        0.75110000      -0.13740000       0.89320000
H       -0.83130000      -0.62040000       0.31150000
H       -0.05000000      -0.37100000      -2.05890000
H        1.52780000       0.14530000      -1.48090000
H        1.88150000      -2.08950000      -0.41230000
H        0.24220000      -2.56550000      -0.84180000
H        2.70440000      -0.83760000      -3.16950000
H        3.65260000      -2.00330000      -2.27010000
H        4.19910000      -1.89170000      -4.76100000
H        3.75040000      -3.51770000      -4.24780000
H        2.57400000      -2.50710000      -5.10700000
H        1.77330000      -4.47960000      -3.55960000
H        0.54370000      -4.45830000      -2.19820000
