12
Properties=species:S:1:pos:R:3 gdb_20755=T pbc="F F F"
C       -0.21440000       1.52980000       0.05600000
C        0.03280000       0.05560000      -0.02940000
N        0.02650000      -0.47870000      -1.20410000
O        0.25790000      -1.85430000      -1.27640000
C        0.48390000      -2.62080000      -0.16070000
O        0.67820000      -3.80000000      -0.26830000
C        0.46020000      -1.86860000       1.10620000
N        0.24870000      -0.60700000       1.18120000
H        0.63800000       2.02150000       0.53520000
H       -0.37050000       1.95060000      -0.93710000
H       -1.09230000       1.72300000       0.68060000
H        0.63570000      -2.44590000       2.01240000
