19
Properties=species:S:1:pos:R:3 gdb_82148=T pbc="F F F"
O        0.30470000       1.39460000       0.05180000
C        0.04330000       0.01320000      -0.02100000
C       -1.38860000      -0.50270000       0.09960000
C       -2.21280000      -0.11430000      -1.09950000
C       -1.24190000      -1.24990000      -1.23500000
C        0.19130000      -0.72710000      -1.40980000
C        0.52930000       0.10630000      -2.64670000
C        1.83160000       0.87500000      -2.52170000
O        2.03440000       1.95120000      -3.02030000
H       -0.39850000       1.86770000      -0.40570000
H        0.69840000      -0.44470000       0.72380000
H       -1.85630000      -0.83430000       1.01870000
H       -3.25780000      -0.39960000      -1.03880000
H       -2.05900000       0.82630000      -1.62380000
H       -1.56980000      -2.25380000      -1.47400000
H        0.92050000      -1.53720000      -1.31070000
H        0.64200000      -0.56830000      -3.50890000
H       -0.25460000       0.82010000      -2.91460000
H        2.63050000       0.34930000      -1.94840000
