11
Properties=species:S:1:pos:R:3 gdb_23698=T pbc="F F F"
F        0.07390000       0.08000000       0.00300000
C       -0.04690000       1.38730000       0.01140000
N       -1.21270000       1.92830000       0.02980000
C       -1.15830000       3.30790000       0.03630000
N       -0.11390000       4.07190000       0.02620000
C        1.14010000       3.46920000       0.00630000
N        2.27820000       4.03170000      -0.00620000
N        1.11530000       2.04750000      -0.00070000
H       -2.13170000       3.79300000       0.05190000
H        2.14680000       5.04180000       0.00070000
H        2.00090000       1.55950000      -0.01520000
