13
Properties=species:S:1:pos:R:3 gdb_27507=T pbc="F F F"
N        0.01490000       1.35140000       0.12030000
C       -0.04560000      -0.00650000       0.03050000
N       -1.18240000      -0.61260000       0.02150000
C       -1.20320000      -1.98140000       0.00110000
N       -2.25930000      -2.66900000       0.01530000
O        0.05070000      -2.67580000      -0.05320000
C        1.24470000      -2.05570000      -0.03200000
O        2.28640000      -2.64610000      -0.03660000
N        1.16440000      -0.66690000      -0.00610000
H        0.81470000       1.83430000      -0.25640000
H       -0.87450000       1.81170000      -0.00040000
H       -2.03570000      -3.66250000      -0.01220000
H        2.04560000      -0.18670000       0.09110000
