13
Properties=species:S:1:pos:R:3 gdb_130586=T pbc="F F F"
O       -0.05700000      -0.04090000       0.00520000
C       -0.00160000       1.16460000       0.01010000
C       -1.20920000       2.10930000       0.03110000
C       -0.79810000       3.38870000       0.03130000
C        0.67570000       3.36630000       0.01100000
C        1.17160000       2.07560000      -0.00180000
C        2.57000000       2.22750000      -0.02030000
N        2.91410000       3.51790000      -0.01890000
N        1.72790000       4.19490000       0.00050000
H       -2.22580000       1.74170000       0.04330000
H       -1.41590000       4.27680000       0.04390000
H        3.34470000       1.47580000      -0.03440000
H        1.75200000       5.20140000       0.00490000
