20
Properties=species:S:1:pos:R:3 gdb_126794=T pbc="F F F"
C       -0.15970000       1.55120000      -0.04100000
C        0.04790000       0.03490000      -0.01320000
N        0.75220000      -0.46190000      -1.17920000
N        0.08170000      -0.67360000      -2.33830000
C        1.00940000      -1.11100000      -3.18230000
C        2.29490000      -1.16750000      -2.60090000
C        3.59030000      -1.59560000      -3.21780000
C        2.08130000      -0.72890000      -1.30170000
N        2.94820000      -0.61050000      -0.20370000
H        0.79620000       2.08560000      -0.04380000
H       -0.71280000       1.83790000      -0.93900000
H       -0.72720000       1.87370000       0.83750000
H        0.62360000      -0.26990000       0.86560000
H       -0.91730000      -0.47720000       0.01720000
H        0.73080000      -1.36840000      -4.19520000
H        4.43830000      -1.03440000      -2.80610000
H        3.80410000      -2.66140000      -3.06460000
H        3.58550000      -1.42250000      -4.29820000
H        3.85790000      -0.99990000      -0.41570000
H        3.07420000       0.34760000       0.10620000
