18
Properties=species:S:1:pos:R:3 gdb_128841=T pbc="F F F"
C       -0.03690000       1.37180000      -0.06030000
O       -0.02450000      -0.03470000       0.00940000
C        0.67970000      -0.52000000       1.12880000
C        0.64280000      -2.04760000       1.07050000
C        1.39430000      -2.66820000       2.20140000
N        2.62890000      -2.38130000       2.58500000
C        2.82850000      -3.21880000       3.63980000
N        1.80860000      -4.00470000       3.93950000
N        0.89790000      -3.63340000       3.00630000
H        0.98080000       1.78570000      -0.13480000
H       -0.59840000       1.64950000      -0.95540000
H       -0.52520000       1.82010000       0.81950000
H        1.72450000      -0.17530000       1.12580000
H        0.22060000      -0.16210000       2.06600000
H       -0.39870000      -2.38600000       1.07520000
H        1.07810000      -2.36580000       0.11640000
H        3.75010000      -3.24960000       4.20170000
H       -0.00640000      -4.07600000       2.98530000
