22
Properties=species:S:1:pos:R:3 gdb_88838=T pbc="F F F"
C       -2.24610000      -0.08990000       2.05920000
C       -1.44820000      -1.36570000       1.87180000
O       -1.10530000      -1.60590000       0.48610000
C        0.28880000      -1.77690000       0.80180000
C        0.05450000      -1.43430000       2.29210000
C        0.70100000      -0.17020000       2.79750000
C        0.78410000       0.12890000       4.25890000
N        1.99230000      -0.14440000       3.49400000
C        2.70880000      -1.37980000       3.77310000
H       -1.71640000       0.78090000       1.66470000
H       -3.19960000      -0.17440000       1.52840000
H       -2.46050000       0.07950000       3.11970000
H       -2.02140000      -2.21460000       2.27240000
H        0.63540000      -2.79950000       0.60420000
H        0.92410000      -1.07450000       0.24720000
H        0.25500000      -2.26570000       2.96880000
H        0.59230000       0.67690000       2.12100000
H        0.66530000       1.14330000       4.63180000
H        0.42780000      -0.64670000       4.93810000
H        2.07970000      -2.21390000       4.12150000
H        3.24330000      -1.70360000       2.87390000
H        3.45130000      -1.17880000       4.55210000
