17
Properties=species:S:1:pos:R:3 gdb_57157=T pbc="F F F"
C       -0.21990000       1.89340000       1.11340000
C       -0.05360000       0.58590000       0.33770000
C        0.77910000      -0.43920000       1.15630000
C        1.77720000      -1.27510000       0.38630000
O        0.62510000      -0.53430000       2.34830000
C       -1.41790000      -0.03950000       0.02200000
O       -2.43950000       0.31410000       0.56430000
C       -1.42360000      -1.09000000      -0.98430000
C       -1.43530000      -1.94860000      -1.82860000
H        0.75330000       2.36450000       1.27640000
H       -0.86040000       2.58780000       0.56510000
H       -0.67580000       1.69210000       2.08290000
H        0.45530000       0.74230000      -0.62070000
H        1.28570000      -1.77190000      -0.45650000
H        2.55090000      -0.62260000      -0.03630000
H        2.23880000      -2.01110000       1.04540000
H       -1.46650000      -2.71020000      -2.57000000
