18
Properties=species:S:1:pos:R:3 gdb_26989=T pbc="F F F"
C       -0.79190000       1.49620000       0.38180000
C       -0.25710000       0.11110000       0.16830000
C        0.28930000      -0.39700000      -0.99470000
C        0.48650000       0.24180000      -2.34510000
C        1.49800000      -0.42720000      -3.16010000
C        2.31410000      -1.01500000      -3.81910000
N        0.62200000      -1.70930000      -0.76700000
C        0.31310000      -2.05330000       0.52230000
C       -0.23760000      -0.94780000       1.12520000
H       -0.35950000       2.21360000      -0.32390000
H       -1.88190000       1.54560000       0.26180000
H       -0.56540000       1.85530000       1.39110000
H       -0.45750000       0.26130000      -2.91050000
H        0.76720000       1.29370000      -2.20900000
H        3.04510000      -1.50500000      -4.41350000
H        1.09880000      -2.28520000      -1.44060000
H        0.52170000      -3.04110000       0.90030000
H       -0.58960000      -0.89090000       2.14470000
