18
Properties=species:S:1:pos:R:3 gdb_28457=T pbc="F F F"
C       -0.01590000       1.48510000       0.03030000
C       -0.00790000      -0.01910000      -0.00530000
N       -0.11910000      -0.61020000      -1.19660000
C       -0.09960000      -1.95060000      -1.18220000
C        0.02560000      -2.72070000      -0.04140000
C        0.05790000      -4.22250000      -0.06480000
C        0.13140000      -1.98000000       1.15830000
N        0.30430000      -2.60140000       2.36860000
N        0.11070000      -0.64510000       1.17140000
H        0.94180000       1.86050000       0.40640000
H       -0.19110000       1.88450000      -0.96880000
H       -0.78960000       1.84690000       0.71440000
H       -0.18890000      -2.44090000      -2.15140000
H        0.98060000      -4.61460000       0.38060000
H       -0.78130000      -4.66250000       0.49150000
H       -0.00280000      -4.59600000      -1.09060000
H       -0.00320000      -3.55400000       2.46950000
H        0.17250000      -2.00670000       3.17230000
