21
Properties=species:S:1:pos:R:3 gdb_103325=T pbc="F F F"
C       -0.07970000       1.15020000       1.11440000
C       -0.02160000      -0.08450000       0.19870000
C       -1.43960000      -0.66760000       0.18780000
O       -2.25250000       0.23230000      -0.57410000
C        0.77210000       0.03720000      -1.15970000
C        2.08380000       0.06550000      -0.31410000
C        1.21160000      -1.06580000       0.31330000
C        1.00460000      -1.51250000      -1.16090000
O        0.00420000      -2.45320000      -1.46740000
H        0.77320000       1.82470000       1.04050000
H       -0.97650000       1.72390000       0.86650000
H       -0.16640000       0.83760000       2.16200000
H       -1.47230000      -1.66900000      -0.23520000
H       -1.79580000      -0.71790000       1.23060000
H       -3.15480000      -0.09850000      -0.55130000
H        0.52330000       0.67280000      -2.01080000
H        2.99540000      -0.25740000      -0.82300000
H        2.27730000       0.94330000       0.29350000
H        1.47520000      -1.70370000       1.15960000
H        1.93870000      -1.80730000      -1.65750000
H       -0.10950000      -2.45860000      -2.42300000
