17
Properties=species:S:1:pos:R:3 gdb_39739=T pbc="F F F"
C       -0.29130000       1.36370000      -0.33120000
N        1.06090000       0.93530000       0.12200000
C        0.03060000      -0.05260000      -0.10460000
C       -0.28550000      -1.07150000       1.04270000
C        0.21410000      -2.19860000       0.22650000
N       -1.12350000      -2.31400000       0.77360000
C       -2.01670000      -2.37010000      -0.41490000
C       -1.29400000      -1.50270000      -1.43620000
C       -0.02880000      -1.29150000      -1.00840000
H       -0.85480000       1.93420000       0.40240000
H       -0.41270000       1.69890000      -1.35870000
H        1.72470000       0.95080000      -0.64750000
H       -0.10320000      -0.86120000       2.09050000
H        1.00480000      -2.91620000       0.40680000
H       -2.16050000      -3.42950000      -0.66110000
H       -3.00280000      -1.93750000      -0.20950000
H       -1.84470000      -0.77360000      -2.02400000
