14
Properties=species:S:1:pos:R:3 gdb_5209=T pbc="F F F"
C       -0.05710000       1.44510000       0.01020000
C       -0.00140000      -0.00740000       0.00240000
C        0.06140000      -1.21200000      -0.00420000
C        0.11500000      -2.62390000      -0.01180000
N        1.19760000      -3.38760000      -0.02300000
C        0.73950000      -4.67710000      -0.02650000
C       -0.63330000      -4.70970000      -0.01750000
N       -1.02210000      -3.39500000      -0.00810000
H        0.95180000       1.87130000       0.00470000
H       -0.58580000       1.83040000      -0.86890000
H       -0.57230000       1.82140000       0.90130000
H        1.42110000      -5.51410000      -0.03540000
H       -1.34610000      -5.51730000      -0.01680000
H       -1.96490000      -3.04380000       0.00000000
