18
Properties=species:S:1:pos:R:3 gdb_49573=T pbc="F F F"
O        0.06140000      -0.01740000      -0.16690000
C        0.07530000       1.19420000      -0.09710000
N        1.17490000       1.93880000       0.17730000
C        2.57460000       1.54320000       0.14820000
C        3.21690000       1.97750000      -1.13850000
C        2.97620000       3.00130000      -0.05160000
C        1.50130000       3.35740000       0.02100000
C        0.71910000       4.39450000      -0.72240000
C        0.87440000       4.47770000       0.78890000
H       -0.83370000       1.82050000      -0.20640000
H        2.95660000       0.78130000       0.81350000
H        4.25300000       1.67680000      -1.25950000
H        2.63480000       1.99660000      -2.05500000
H        3.76740000       3.55750000       0.43140000
H        1.26890000       5.09680000      -1.34040000
H       -0.25620000       4.12520000      -1.11310000
H        0.00840000       4.24660000       1.39970000
H        1.52640000       5.24150000       1.20020000
