16
Properties=species:S:1:pos:R:3 gdb_17093=T pbc="F F F"
N       -0.06110000      -1.14450000      -0.11410000
C       -0.01650000       0.01020000      -0.06270000
C        0.04400000       1.46240000       0.02140000
C       -0.39410000       2.05460000       1.43130000
N        0.81500000       2.79670000       1.86110000
C        1.19660000       3.46740000       0.55490000
C        1.48200000       2.03850000       0.03260000
C        1.89110000       1.78650000       1.50490000
H       -0.55060000       1.88100000      -0.79570000
H       -1.24500000       2.73210000       1.33810000
H       -0.63820000       1.27200000       2.15100000
H        0.40560000       4.06180000       0.08770000
H        2.09520000       4.07180000       0.69070000
H        2.11440000       1.81300000      -0.82640000
H        2.87560000       2.18270000       1.75930000
H        1.75770000       0.78970000       1.93310000
