12
Properties=species:S:1:pos:R:3 gdb_8795=T pbc="F F F"
C       -0.02720000       1.39630000       0.03150000
O        0.01790000      -0.04070000      -0.02450000
C        0.62620000      -0.55220000      -1.08750000
O        1.13120000       0.07660000      -1.98740000
C        0.62840000      -2.09060000      -1.06650000
O        0.13320000      -2.73690000      -0.18590000
C        1.32470000      -2.75820000      -2.27950000
O        1.38200000      -3.95430000      -2.36100000
H        0.98520000       1.80680000       0.04310000
H       -0.56250000       1.79240000      -0.83460000
H       -0.55270000       1.63670000       0.95420000
H        1.74840000      -2.07430000      -3.03540000
