20
Properties=species:S:1:pos:R:3 gdb_79931=T pbc="F F F"
C       -0.06190000       1.54290000       0.01060000
C        0.08660000       0.03970000       0.02680000
C        1.40090000      -0.69500000      -0.23830000
N        2.62530000       0.04710000      -0.07460000
C        2.66090000       0.41410000       1.14750000
C        3.71160000       1.23860000       1.80630000
O        1.63630000       0.01370000       1.95920000
C        0.74270000      -0.74000000       1.13640000
C        0.11950000      -1.90020000       1.85390000
H        0.86150000       2.04960000       0.29820000
H       -0.32500000       1.88950000      -0.99390000
H       -0.85110000       1.86660000       0.69740000
H       -0.76420000      -0.49530000      -0.39000000
H        1.42380000      -1.51830000      -0.94350000
H        4.51830000       1.43150000       1.09970000
H        3.29590000       2.19140000       2.14970000
H        4.10470000       0.71970000       2.68600000
H       -0.53240000      -1.56080000       2.66620000
H       -0.48710000      -2.48750000       1.15890000
H        0.88620000      -2.55440000       2.28090000
