14
Properties=species:S:1:pos:R:3 gdb_56458=T pbc="F F F"
O        0.08960000       1.51450000      -0.14520000
C        0.02350000       0.12380000      -0.01900000
C        0.60710000      -0.58110000      -1.16650000
C        1.09250000      -1.16670000      -2.09670000
C        0.73650000      -0.32100000       1.28190000
O        1.25470000       0.50750000       1.98290000
C        0.73200000      -1.81640000       1.59220000
C        1.27590000      -2.14100000       2.90430000
N        1.69980000      -2.41920000       3.94110000
H        0.66040000       1.81740000       0.58010000
H       -1.03140000      -0.18700000       0.07980000
H        1.51440000      -1.67150000      -2.93140000
H       -0.29210000      -2.19930000       1.50500000
H        1.30670000      -2.32320000       0.80790000
