21
Properties=species:S:1:pos:R:3 gdb_76825=T pbc="F F F"
C       -0.04020000       1.57080000       0.14310000
C        0.01570000       0.06080000      -0.01830000
C        0.78590000      -0.57670000      -1.25860000
O        1.82730000       0.22030000      -1.76340000
C        1.24450000      -1.75110000      -0.30160000
C        2.70350000      -2.18200000      -0.06860000
C        2.96870000      -1.80910000       1.42920000
C        1.94340000      -0.71190000       1.71120000
C        0.96450000      -0.77690000       0.81180000
H        0.95240000       2.01920000       0.04330000
H       -0.68710000       2.02200000      -0.61600000
H       -0.43470000       1.84330000       1.12740000
H       -0.99550000      -0.36460000       0.00110000
H        0.16900000      -0.84970000      -2.11790000
H        2.39990000       0.46130000      -1.02420000
H        0.53940000      -2.58730000      -0.36730000
H        2.88610000      -3.23880000      -0.27960000
H        3.36950000      -1.60270000      -0.71890000
H        2.83200000      -2.67770000       2.08870000
H        3.99500000      -1.46140000       1.59300000
H        2.06660000       0.02470000       2.49720000
