14
Properties=species:S:1:pos:R:3 gdb_16094=T pbc="F F F"
C        0.01760000      -1.17510000      -0.01960000
C       -0.00080000       0.02660000       0.02200000
C        0.00270000       1.45810000       0.05840000
C        0.37540000       2.24890000      -1.19120000
C        1.28900000       2.34360000      -0.01140000
N        0.99460000       3.41240000       0.90490000
C       -0.26260000       3.15590000       1.43020000
N       -0.87880000       2.11770000       0.99730000
H        0.02280000      -2.23630000      -0.04990000
H        0.72660000       1.66080000      -2.03050000
H       -0.24440000       3.10410000      -1.44050000
H        2.30100000       1.96070000      -0.03780000
H        1.72220000       3.77520000       1.50220000
H       -0.69100000       3.84850000       2.14720000
