17
Properties=species:S:1:pos:R:3 gdb_40011=T pbc="F F F"
C        0.04280000       1.50800000      -0.00070000
O        1.19430000       0.65120000       0.00730000
C       -0.09690000       0.05330000       0.01770000
C       -0.50050000      -0.82440000       1.21360000
C       -1.10770000      -2.04290000       0.44650000
O       -0.23050000      -2.12180000      -0.68660000
C       -0.51080000      -0.81030000      -1.19400000
C       -2.03870000      -0.79650000      -1.22040000
C       -2.41060000      -1.56460000      -0.19720000
H       -0.12130000       2.08030000       0.91160000
H       -0.11890000       2.06300000      -0.92510000
H        0.39600000      -1.11930000       1.76380000
H       -1.20290000      -0.34620000       1.89910000
H       -1.12420000      -2.98780000       0.98740000
H        0.03640000      -0.61020000      -2.11340000
H       -2.65000000      -0.19590000      -1.87920000
H       -3.40440000      -1.75050000       0.18650000
