23
Properties=species:S:1:pos:R:3 gdb_58868=T pbc="F F F"
C        0.34720000       1.56450000      -0.10700000
C        0.01610000       0.06420000      -0.01210000
C        0.48490000      -0.68670000      -1.26570000
C        0.59840000      -0.53020000       1.24350000
O        2.02230000      -0.73610000       1.30320000
C        1.15990000      -1.85700000       1.55950000
C        0.72830000      -1.76730000       3.02460000
C        0.12890000      -0.34530000       2.71230000
C        0.67530000       0.84050000       3.49590000
H        1.43050000       1.71500000      -0.15520000
H       -0.09760000       2.00170000      -1.00650000
H       -0.03170000       2.11790000       0.75720000
H       -1.07530000      -0.03900000       0.06860000
H        1.57550000      -0.65730000      -1.34260000
H        0.17440000      -1.73590000      -1.24240000
H        0.06330000      -0.23110000      -2.16670000
H        1.30400000      -2.73420000       0.93850000
H       -0.03410000      -2.49870000       3.30340000
H        1.54770000      -1.79960000       3.74790000
H       -0.96460000      -0.37960000       2.76670000
H        1.75820000       0.91390000       3.36140000
H        0.22400000       1.78470000       3.17310000
H        0.47130000       0.72640000       4.56610000
