17
Properties=species:S:1:pos:R:3 gdb_128830=T pbc="F F F"
C       -0.28600000       1.34370000      -0.28480000
O       -0.31070000      -0.06650000      -0.33620000
C        0.86450000      -0.61000000      -0.91920000
C        0.72510000      -2.09670000      -0.96190000
N        1.70930000      -2.88070000      -0.59150000
O        1.26750000      -4.16950000      -0.79520000
C        0.00020000      -4.13150000      -1.27400000
C       -0.41210000      -2.84130000      -1.40790000
N       -1.59010000      -2.28940000      -1.91410000
H        0.55460000       1.70870000       0.32380000
H       -0.20340000       1.78650000      -1.28950000
H       -1.22280000       1.66930000       0.17270000
H        0.99130000      -0.21040000      -1.93990000
H        1.75920000      -0.33930000      -0.34100000
H       -0.46140000      -5.08670000      -1.46520000
H       -2.38220000      -2.91620000      -1.87180000
H       -1.80270000      -1.41250000      -1.45350000
