17
Properties=species:S:1:pos:R:3 gdb_39825=T pbc="F F F"
C        0.17830000       1.30910000       0.00740000
O        1.28860000       0.39570000      -0.00860000
C       -0.01380000      -0.13830000       0.00150000
C       -0.68840000      -1.02570000       1.06130000
C       -1.83340000      -1.18200000       0.01410000
C       -0.70970000      -1.01420000      -1.05410000
O       -0.03580000      -2.26420000      -1.19110000
C        0.69550000      -2.57910000      -0.01880000
O       -0.01210000      -2.27700000       1.17130000
H        0.05100000       1.86930000       0.93260000
H        0.03250000       1.87930000      -0.90880000
H       -0.88550000      -0.65670000       2.06830000
H       -2.34090000      -2.14610000       0.01400000
H       -2.54450000      -0.35280000       0.02580000
H       -0.92680000      -0.63430000      -2.05280000
H        0.87420000      -3.65620000      -0.02650000
H        1.64740000      -2.03150000      -0.02540000
