15
Properties=species:S:1:pos:R:3 gdb_79489=T pbc="F F F"
C        0.07800000       1.52520000      -0.15430000
N        0.04150000       0.06750000      -0.03680000
C       -1.11540000      -0.49410000       0.71720000
C       -0.28660000      -1.71920000       1.19730000
O       -0.65350000      -1.58450000       2.59170000
C       -0.54170000      -0.20900000       2.15740000
C        0.68860000      -0.49070000       1.18670000
C        2.09810000      -0.42670000       1.45980000
N        3.22900000      -0.36010000       1.69150000
H        1.08250000       1.83320000      -0.45770000
H       -0.62070000       1.83170000      -0.93810000
H       -0.18390000       2.05980000       0.77360000
H       -2.14550000      -0.45880000       0.36680000
H       -0.15000000      -2.70530000       0.75970000
H       -0.71170000       0.58020000       2.88780000
