21
Properties=species:S:1:pos:R:3 gdb_71950=T pbc="F F F"
C       -0.01610000       1.55170000       0.01410000
C       -0.00480000       0.03560000      -0.01520000
C        0.27630000      -0.69470000      -1.35740000
C       -0.69740000      -1.80980000      -0.90760000
C       -0.03320000      -2.77840000       0.09880000
C       -0.05040000      -1.91210000       1.37670000
C        0.78960000      -0.63920000       1.13630000
O       -1.38980000      -1.39290000       1.37240000
C       -1.34630000      -0.78880000       0.09610000
H        0.99430000       1.95990000      -0.10880000
H       -0.63630000       1.96070000      -0.79140000
H       -0.41050000       1.92520000       0.96580000
H       -0.11530000      -0.13110000      -2.21040000
H        1.31130000      -0.98150000      -1.57110000
H       -1.31290000      -2.30200000      -1.66070000
H       -0.64590000      -3.67110000       0.25160000
H        0.97060000      -3.09020000      -0.20420000
H        0.13610000      -2.43760000       2.31360000
H        1.83110000      -0.84530000       0.87220000
H        0.77600000      -0.01460000       2.03470000
H       -2.29150000      -0.30760000      -0.14950000
