17
Properties=species:S:1:pos:R:3 gdb_32854=T pbc="F F F"
C        0.07130000       1.44990000      -0.06410000
C       -0.14380000      -0.04570000       0.14070000
N        0.71080000      -0.53960000       1.21520000
C        0.86630000      -1.87180000       1.45200000
N        1.29910000      -2.42760000       2.55210000
C        1.33460000      -3.77450000       2.23620000
O        1.74200000      -4.68310000       3.14250000
C        0.91740000      -3.98480000       0.96810000
O        0.60280000      -2.72220000       0.44840000
H        1.11470000       1.66330000      -0.31260000
H       -0.56300000       1.81640000      -0.87570000
H       -0.18690000       2.01550000       0.83860000
H       -1.20630000      -0.25170000       0.34300000
H        0.11680000      -0.59420000      -0.76820000
H        0.72950000       0.00880000       2.06230000
H        1.97350000      -4.18760000       3.93700000
H        0.77310000      -4.82930000       0.32320000
