23
Properties=species:S:1:pos:R:3 gdb_94079=T pbc="F F F"
C       -0.06650000       1.56450000       0.01100000
C        0.01120000       0.03540000       0.00210000
C        0.70170000      -0.49150000      -1.26600000
C        0.80140000      -2.02300000      -1.28420000
C        1.51430000      -2.56330000      -0.02610000
C        0.82550000      -2.03660000       1.25100000
C        0.72560000      -0.50490000       1.25120000
C        1.50170000      -4.07500000      -0.03410000
O        2.47500000      -4.78370000      -0.04750000
H        0.93610000       2.00880000       0.00390000
H       -0.60210000       1.94110000      -0.86690000
H       -0.58530000       1.93160000       0.90300000
H       -1.01710000      -0.35820000       0.00980000
H        0.16430000      -0.14650000      -2.15730000
H        1.71170000      -0.06170000      -1.32710000
H       -0.20890000      -2.45360000      -1.33570000
H        1.33000000      -2.35790000      -2.18350000
H        2.56460000      -2.24910000      -0.03440000
H       -0.18370000      -2.46770000       1.31720000
H        1.37110000      -2.38100000       2.13660000
H        1.73670000      -0.07580000       1.29760000
H        0.20540000      -0.16960000       2.15620000
H        0.47440000      -4.51610000      -0.02650000
