14
Properties=species:S:1:pos:R:3 gdb_51408=T pbc="F F F"
O        0.52710000       0.02590000       0.12860000
C        0.61690000       1.19060000       0.36390000
O        0.61280000       2.11790000      -0.62550000
C        0.81610000       3.48340000      -0.35670000
C        1.33510000       3.97840000       1.03040000
N        2.66560000       3.32350000       0.65620000
C        2.25130000       4.01680000      -0.64310000
C        1.88610000       5.20770000       0.26510000
O        2.11360000       6.36500000       0.42250000
H        0.68450000       1.62780000       1.37150000
H       -0.00890000       4.04480000      -0.79670000
H        0.89510000       3.89400000       2.02100000
H        3.45520000       3.79920000       1.09970000
H        2.83290000       3.93780000      -1.55770000
