18
Properties=species:S:1:pos:R:3 gdb_79547=T pbc="F F F"
C       -0.03740000       1.47920000       0.00210000
C       -0.03110000      -0.02960000      -0.06240000
C        0.71890000      -0.69850000      -1.14590000
N        1.29060000      -0.62770000       0.24460000
C        1.21090000      -2.13460000       0.30120000
C       -0.10180000      -2.79660000       0.02880000
C        0.69710000      -2.24790000      -1.13890000
C        1.15570000      -3.03790000      -2.22470000
C        1.54310000      -3.68500000      -3.16360000
H        0.89180000       1.88840000      -0.40320000
H       -0.87750000       1.88540000      -0.57060000
H       -0.13130000       1.81790000       1.03870000
H       -0.92220000      -0.49490000       0.34470000
H        1.18910000      -0.15680000      -1.96060000
H        2.04080000      -2.64840000       0.76890000
H       -0.04770000      -3.87850000       0.09580000
H       -1.06690000      -2.39450000       0.31340000
H        1.88710000      -4.26100000      -3.98620000
