17
Properties=species:S:1:pos:R:3 gdb_78618=T pbc="F F F"
C        0.00200000       1.48480000      -0.02810000
C       -0.02600000      -0.01470000       0.00840000
C        0.50640000      -1.01710000      -0.96400000
C        1.22640000      -0.83400000       0.39180000
C        0.75450000      -2.20250000       0.76900000
O        1.19780000      -3.09270000       1.43980000
C       -0.39850000      -2.09900000      -0.25290000
C       -1.24500000      -0.91160000       0.29420000
O       -1.82400000      -0.98320000       1.56530000
H        0.95910000       1.86110000      -0.40260000
H       -0.78930000       1.86800000      -0.68150000
H       -0.15700000       1.90210000       0.97160000
H        0.92590000      -0.95680000      -1.95570000
H        2.17530000      -0.35370000       0.58900000
H       -0.84980000      -2.98540000      -0.68920000
H       -2.05470000      -0.65830000      -0.39690000
H       -1.15890000      -1.28250000       2.19600000
