14
Properties=species:S:1:pos:R:3 gdb_27606=T pbc="F F F"
O        0.10120000       1.35460000       0.10910000
C        0.06770000       0.00340000       0.03940000
C        0.07030000      -0.69750000      -1.16410000
C        0.03370000      -2.09650000      -1.12830000
N       -0.00420000      -2.80410000       0.01390000
C       -0.00570000      -2.10640000       1.15130000
C        0.02860000      -0.72040000       1.23160000
C        0.03590000      -2.82920000      -2.35840000
C        0.03880000      -3.41470000      -3.40970000
H        0.12600000       1.72140000      -0.78170000
H        0.09990000      -0.18050000      -2.11780000
H       -0.03660000      -2.69430000       2.06560000
H        0.02550000      -0.20330000       2.18320000
H        0.04080000      -3.94940000      -4.32730000
