19
Properties=species:S:1:pos:R:3 gdb_82464=T pbc="F F F"
C       -0.12580000       1.48030000       0.04760000
C        0.00570000      -0.01080000       0.07140000
O       -1.22370000      -0.75370000       0.20950000
C       -0.34280000      -1.87480000       0.50950000
C        0.75080000      -0.90590000       1.09430000
C        1.99130000      -0.93600000       0.18580000
C        0.96120000      -0.79080000      -0.96580000
C        0.22940000      -2.14210000      -0.90830000
O        1.12120000      -3.22920000      -1.04430000
H        0.85980000       1.95460000       0.01590000
H       -0.68480000       1.79970000      -0.83860000
H       -0.65730000       1.83540000       0.93540000
H       -0.81410000      -2.68170000       1.07130000
H        0.75870000      -0.72220000       2.16770000
H        2.59070000      -0.03170000       0.32170000
H        2.63250000      -1.81630000       0.17470000
H        1.22830000      -0.38790000      -1.94130000
H       -0.59810000      -2.20310000      -1.62520000
H        0.60790000      -4.04080000      -0.98600000
