17
Properties=species:S:1:pos:R:3 gdb_13568=T pbc="F F F"
C       -0.79350000       1.18030000       0.31160000
N       -0.13240000      -0.10800000       0.16690000
C        1.18540000      -0.14650000      -0.44470000
C        1.00750000      -0.44880000       1.00950000
C        1.55780000       0.49420000       2.07080000
O        0.81310000       0.41350000       3.25510000
C        3.01310000       0.15710000       2.33690000
O        3.39780000      -0.16320000       3.43560000
H       -0.10990000       2.04000000       0.39690000
H       -1.42400000       1.34530000      -0.56740000
H       -1.43150000       1.15830000       1.19940000
H        1.36870000      -0.94440000      -1.15920000
H        1.65530000       0.80490000      -0.69920000
H        1.00430000      -1.48710000       1.33820000
H        1.55050000       1.52480000       1.67530000
H        1.44540000       0.15570000       3.94510000
H        3.69780000       0.21400000       1.46770000
