19
Properties=species:S:1:pos:R:3 gdb_75655=T pbc="F F F"
C       -0.09990000       1.54630000       0.03410000
C        0.05200000       0.02710000       0.06390000
C        0.97680000      -0.54660000      -1.03650000
O        0.92900000      -0.34920000      -2.22060000
C        1.96860000      -1.37820000      -0.23380000
C        2.30050000      -0.35950000       0.90870000
C        0.79720000      -0.58690000       1.26760000
O        0.23510000      -0.24000000       2.48920000
C        1.00570000      -2.05830000       0.79440000
H        0.85850000       2.05680000       0.16930000
H       -0.50950000       1.85820000      -0.93070000
H       -0.77400000       1.87950000       0.82720000
H       -0.93910000      -0.43470000      -0.03150000
H        2.73510000      -1.92230000      -0.77940000
H        2.97490000      -0.79970000       1.64880000
H        2.64100000       0.64210000       0.63700000
H        0.75560000      -0.64150000       3.19320000
H        0.14230000      -2.61260000       0.41680000
H        1.55940000      -2.65980000       1.52100000
