21
Properties=species:S:1:pos:R:3 gdb_56667=T pbc="F F F"
C       -0.22600000       1.47840000      -0.00290000
C        0.05870000      -0.03720000       0.01570000
C        0.72490000      -0.45920000      -1.21700000
C        1.28650000      -0.79990000      -2.22460000
C        0.85700000      -0.49870000       1.26440000
C        2.22170000       0.16790000       1.39380000
C       -0.01660000      -0.52410000       2.54700000
O       -0.10780000      -1.96010000       2.51770000
C        0.83550000      -2.04090000       1.42920000
H        0.69470000       2.05370000      -0.12580000
H       -0.89010000       1.72950000      -0.83370000
H       -0.70990000       1.79110000       0.92770000
H       -0.90930000      -0.55620000       0.06140000
H        1.77100000      -1.10460000      -3.11910000
H        2.13040000       1.24610000       1.55970000
H        2.77310000      -0.24960000       2.24190000
H        2.81960000       0.01460000       0.48990000
H        0.49300000      -0.16170000       3.45030000
H       -1.00340000      -0.04810000       2.48280000
H        0.44420000      -2.61580000       0.58210000
H        1.79100000      -2.47900000       1.74700000
