23
Properties=species:S:1:pos:R:3 gdb_95157=T pbc="F F F"
C       -0.02850000       1.52000000       0.01470000
C       -0.02340000       0.00330000       0.00970000
C       -0.85840000      -0.70270000       1.05770000
C        0.64630000      -0.71010000       1.17150000
C        1.45560000      -1.97740000       0.95260000
C        1.11230000      -2.68710000      -0.36450000
C        1.14560000      -1.69590000      -1.52970000
O        0.92630000      -2.32600000      -2.78660000
C        0.05550000      -0.63210000      -1.38520000
H        0.88840000       1.92210000      -0.43310000
H       -0.87580000       1.91390000      -0.55960000
H       -0.10450000       1.91610000       1.03260000
H       -1.42100000      -0.09790000       1.76200000
H       -1.35940000      -1.62230000       0.77000000
H        1.05330000      -0.06030000       1.94280000
H        2.52120000      -1.71090000       0.93670000
H        1.32410000      -2.66290000       1.79900000
H        1.83130000      -3.49700000      -0.54280000
H        0.12030000      -3.15380000      -0.32250000
H        2.13060000      -1.19620000      -1.52460000
H        1.60230000      -3.00170000      -2.90070000
H       -0.89810000      -1.10440000      -1.65030000
H        0.22940000       0.14540000      -2.13590000
