16
Properties=species:S:1:pos:R:3 gdb_129594=T pbc="F F F"
N        0.20620000       1.28370000       0.78630000
C        0.05410000       0.03340000       0.18870000
C       -1.03930000      -0.58750000      -0.40420000
C       -0.55560000      -1.87960000      -0.73480000
N        0.71170000      -2.05460000      -0.39650000
N        1.06120000      -0.87160000       0.17490000
C       -2.35470000       0.02540000      -0.64810000
C       -3.54070000      -0.74240000      -1.04870000
O       -3.43780000      -0.24270000       0.27860000
H        0.95690000       1.84030000       0.39450000
H       -0.65320000       1.81620000       0.78090000
H       -1.09010000      -2.67920000      -1.22740000
H        1.97570000      -0.77020000       0.58110000
H       -2.32990000       1.07490000      -0.94990000
H       -4.29770000      -0.27450000      -1.67800000
H       -3.47030000      -1.82480000      -1.14760000
