23
Properties=species:S:1:pos:R:3 gdb_99992=T pbc="F F F"
C       -0.15570000       1.33890000       0.12670000
O        0.02260000      -0.04730000      -0.05340000
C        0.70510000      -0.48910000      -1.23550000
C        0.01390000       0.00650000      -2.51370000
C        2.17460000      -0.04490000      -1.20350000
C        0.62150000      -2.04700000      -1.10200000
C       -0.82530000      -2.57770000      -1.02290000
C        1.36080000      -2.73360000      -2.15920000
C        1.94070000      -3.31770000      -3.03650000
H        0.79530000       1.88650000       0.18540000
H       -0.76930000       1.79310000      -0.66330000
H       -0.67840000       1.45990000       1.07920000
H        0.18050000       1.07610000      -2.66850000
H        0.41770000      -0.52110000      -3.38190000
H       -1.06410000      -0.16890000      -2.47160000
H        2.64310000      -0.35240000      -0.26360000
H        2.72810000      -0.49550000      -2.03050000
H        2.26450000       1.04120000      -1.29460000
H        1.10730000      -2.27280000      -0.14350000
H       -0.81790000      -3.64340000      -0.78010000
H       -1.37350000      -2.03910000      -0.24890000
H       -1.34570000      -2.45940000      -1.97690000
H        2.46240000      -3.83470000      -3.80330000
