21
Properties=species:S:1:pos:R:3 gdb_93814=T pbc="F F F"
C       -0.00980000       1.46810000       0.01240000
N       -0.01310000       0.01550000       0.00320000
C       -1.33410000      -0.54960000      -0.20360000
C       -1.20360000      -2.04400000      -0.46060000
N       -0.40450000      -2.70380000       0.56170000
C       -0.45710000      -4.15480000       0.59280000
C        0.51530000      -2.05200000       1.33660000
O        1.24210000      -2.62100000       2.13410000
C        0.57170000      -0.53070000       1.21810000
H        1.01570000       1.83300000       0.12740000
H       -0.40160000       1.84620000      -0.93700000
H       -0.61640000       1.89860000       0.83240000
H       -2.00420000      -0.37140000       0.66200000
H       -1.79800000      -0.07920000      -1.07650000
H       -2.20000000      -2.50350000      -0.47210000
H       -0.75570000      -2.20830000      -1.45200000
H       -0.13410000      -4.58020000      -0.36660000
H        0.20730000      -4.50160000       1.38280000
H       -1.47990000      -4.49610000       0.79200000
H        1.62760000      -0.25470000       1.28310000
H        0.08310000      -0.13230000       2.13140000
