21
Properties=species:S:1:pos:R:3 gdb_80397=T pbc="F F F"
C        0.26830000       1.46460000       0.03340000
C        0.06080000      -0.04240000      -0.05170000
C       -1.42460000      -0.41190000       0.01340000
C        0.75980000      -0.69920000      -1.27450000
C        1.29760000      -2.01680000      -0.73070000
C        2.53780000      -1.92720000       0.15180000
O        3.28870000      -0.75790000       0.20410000
C        1.16750000      -1.92590000       0.77230000
O        0.73010000      -0.63110000       1.10450000
H        1.33450000       1.70900000       0.01320000
H       -0.21140000       1.96330000      -0.81430000
H       -0.16320000       1.86490000       0.95540000
H       -1.97650000       0.04500000      -0.81450000
H       -1.55600000      -1.49680000      -0.04790000
H       -1.86120000      -0.06600000       0.95470000
H        0.05880000      -0.85860000      -2.09710000
H        1.57480000      -0.06550000      -1.63770000
H        1.10300000      -2.94210000      -1.25970000
H        3.14440000      -2.82460000       0.23930000
H        2.80600000      -0.16600000       0.79940000
H        0.79960000      -2.71830000       1.41640000
