15
Properties=species:S:1:pos:R:3 gdb_46218=T pbc="F F F"
O        0.01130000       0.05470000      -0.28300000
C        0.06040000       1.21650000      -0.03910000
O       -0.96100000       2.03200000       0.41410000
C       -0.07660000       3.19610000       0.49610000
C        1.06390000       2.33550000      -0.02980000
C        2.52010000       2.35560000       0.38130000
C        3.21680000       1.16480000      -0.28060000
O        2.74200000       1.58040000      -1.59710000
C        2.12780000       2.72030000      -1.02500000
H       -0.42890000       3.99970000      -0.15540000
H        0.00780000       3.54480000       1.52850000
H        2.88150000       2.95050000       1.20940000
H        4.30840000       1.22280000      -0.23700000
H        2.86840000       0.16360000      -0.01500000
H        2.11310000       3.64800000      -1.58630000
