15
Properties=species:S:1:pos:R:3 gdb_15301=T pbc="F F F"
N       -0.28790000       1.17120000      -0.03780000
C       -0.46800000      -0.04460000      -0.31450000
O       -0.97150000      -0.87590000       0.63260000
C       -0.99630000      -2.23420000       0.30900000
C       -2.12360000      -3.01740000       0.88060000
C       -2.07870000      -2.77290000      -0.62660000
C       -3.01300000      -1.88280000      -1.24520000
C       -3.78500000      -1.13410000      -1.78360000
H        0.07810000       1.66070000      -0.85180000
H       -0.26560000      -0.54550000      -1.26870000
H       -0.01390000      -2.69600000       0.24210000
H       -1.93580000      -4.02210000       1.24010000
H       -2.86160000      -2.45030000       1.43450000
H       -1.77570000      -3.61970000      -1.23620000
H       -4.47320000      -0.47170000      -2.24740000
