24
Properties=species:S:1:pos:R:3 gdb_120624=T pbc="F F F"
C       -0.39900000       1.56560000       0.26860000
C        0.11830000       0.15140000      -0.02780000
C        0.79250000      -0.51490000       1.16460000
C        2.04450000       0.17520000       1.67390000
C       -0.05600000      -1.27660000       2.12710000
N        0.87070000      -1.98340000       1.23950000
C        0.31280000      -2.82890000       0.18390000
C        0.56590000      -4.29250000       0.54620000
O        0.00730000      -4.63320000       1.80230000
H        0.41300000       2.25170000       0.52670000
H       -0.91390000       1.97900000      -0.60410000
H       -1.10710000       1.55690000       1.10390000
H       -0.71870000      -0.46490000      -0.36870000
H        0.83210000       0.19380000      -0.86200000
H        1.82210000       1.16650000       2.08170000
H        2.51070000      -0.42440000       2.45900000
H        2.77530000       0.30000000       0.86610000
H        0.18470000      -1.29350000       3.18810000
H       -1.12000000      -1.35820000       1.90700000
H       -0.76770000      -2.67530000       0.03850000
H        0.81580000      -2.60290000      -0.76480000
H        0.09490000      -4.94750000      -0.19470000
H        1.64970000      -4.48380000       0.52850000
H        0.44740000      -4.06920000       2.44800000
