14
Properties=species:S:1:pos:R:3 gdb_43527=T pbc="F F F"
O       -0.01700000      -0.04590000      -0.34960000
C       -0.03400000       1.13890000      -0.14470000
C       -1.24410000       2.02800000       0.12660000
C       -0.69830000       3.47730000       0.13740000
C       -1.16070000       4.30400000       1.23910000
C       -1.55630000       4.96320000       2.16140000
C        0.84400000       3.30840000       0.12070000
O        1.67620000       4.16530000       0.23380000
N        1.08930000       1.95990000      -0.09340000
H       -2.01280000       1.85400000      -0.62810000
H       -1.66520000       1.75060000       1.09630000
H       -0.94110000       3.97480000      -0.81070000
H       -1.89740000       5.55810000       2.97250000
H        2.02680000       1.59650000      -0.19670000
