18
Properties=species:S:1:pos:R:3 gdb_84773=T pbc="F F F"
C        0.00090000       1.43250000       0.00610000
N       -0.11710000      -0.00830000      -0.00210000
C        0.13510000      -0.82140000      -1.08480000
N        0.22190000      -2.07910000      -0.88480000
C       -0.01310000      -2.27540000       0.55030000
C        0.02050000      -0.83930000       1.20470000
C        1.34030000      -0.58340000       1.95750000
C       -1.11920000      -0.61440000       2.10780000
N       -2.00440000      -0.43130000       2.82830000
H        1.00280000       1.78620000       0.28700000
H       -0.22530000       1.80940000      -0.99440000
H       -0.72700000       1.86560000       0.69970000
H        0.22710000      -0.36050000      -2.06460000
H       -0.98540000      -2.75640000       0.70210000
H        0.75060000      -2.92090000       0.99370000
H        2.18040000      -0.76340000       1.28060000
H        1.40110000       0.43920000       2.33820000
H        1.42190000      -1.26660000       2.80710000
