15
Properties=species:S:1:pos:R:3 gdb_66408=T pbc="F F F"
O        0.11200000       1.44870000       0.18240000
C        0.03270000       0.09760000      -0.00580000
C       -1.13670000      -0.89120000      -0.10420000
N       -0.42080000      -1.62580000      -1.15200000
C        0.68260000      -0.70970000      -1.09060000
N        1.73450000      -0.52810000      -1.75810000
C       -0.31870000      -0.80420000       1.17710000
C        0.50300000      -1.88360000       1.64490000
C        1.17760000      -2.81020000       2.01000000
H        0.27380000       1.85670000      -0.67690000
H       -2.20560000      -0.73110000      -0.15320000
H       -0.21500000      -2.60650000      -0.97750000
H        1.85930000      -1.25290000      -2.46750000
H       -0.81270000      -0.21970000       1.95160000
H        1.78630000      -3.61250000       2.34680000
