21
Properties=species:S:1:pos:R:3 gdb_98193=T pbc="F F F"
C       -0.50460000       1.35840000       0.17750000
C       -0.12270000      -0.12330000       0.20690000
C        0.98340000      -0.46580000       1.24380000
C        2.31040000       0.23120000       0.94540000
O        0.58930000      -0.06720000       2.55020000
C        1.18190000      -1.98800000       1.16900000
O        1.92310000      -2.56330000       0.41540000
O        0.35580000      -2.62460000       2.03090000
C        0.41720000      -4.05710000       2.00430000
H        0.30650000       1.98150000      -0.21030000
H       -1.37550000       1.51440000      -0.46600000
H       -0.75140000       1.70870000       1.18300000
H       -1.00810000      -0.72080000       0.45990000
H        0.20840000      -0.45900000      -0.78270000
H        2.18210000       1.31400000       0.99930000
H        3.05960000      -0.05980000       1.68570000
H        2.67450000      -0.04510000      -0.04530000
H       -0.04640000      -0.71770000       2.86890000
H        1.42030000      -4.40050000       2.26820000
H       -0.31070000      -4.40100000       2.73900000
H        0.16720000      -4.43200000       1.00900000
