22
Properties=species:S:1:pos:R:3 gdb_80883=T pbc="F F F"
C       -0.14280000       1.55920000      -0.02630000
C       -0.01750000       0.04040000      -0.00030000
C        1.08880000      -0.59820000      -0.89510000
C        2.09210000      -0.26740000       0.26250000
C        0.83460000      -0.59600000       1.15340000
C        0.71120000      -0.16730000       2.59770000
C        0.73000000      -2.11020000       0.83210000
N       -0.39260000      -2.51580000      -0.05130000
C        0.91130000      -2.10990000      -0.63470000
H        0.80650000       2.09080000       0.08440000
H       -0.58910000       1.88180000      -0.97360000
H       -0.80610000       1.90140000       0.77610000
H       -1.00660000      -0.40070000      -0.12180000
H        1.25580000      -0.27180000      -1.92230000
H        2.96500000      -0.91970000       0.37090000
H        2.40680000       0.77630000       0.30390000
H        0.84960000       0.91300000       2.70940000
H       -0.27540000      -0.42200000       3.00140000
H        1.46260000      -0.66280000       3.22430000
H        1.18000000      -2.83810000       1.49930000
H       -0.43650000      -3.53340000      -0.05800000
H        1.51200000      -2.83850000      -1.16750000
