21
Properties=species:S:1:pos:R:3 gdb_75009=T pbc="F F F"
C        0.11700000       1.49070000       0.04940000
C        0.09510000      -0.00420000      -0.01150000
C       -0.03420000      -0.76810000      -1.09920000
C       -0.01340000      -2.24730000      -0.80560000
C        1.16500000      -3.01410000      -1.44570000
C        2.28020000      -2.78110000      -0.42560000
O        1.63760000      -2.81680000       0.84330000
C        0.30790000      -2.30430000       0.72240000
C        0.19280000      -0.84970000       1.23940000
H        1.04930000       1.85310000       0.50080000
H        0.02150000       1.93940000      -0.94320000
H       -0.69850000       1.87320000       0.67680000
H       -0.14050000      -0.38520000      -2.11000000
H       -0.96980000      -2.72170000      -1.05280000
H        0.93330000      -4.08170000      -1.51480000
H        1.41620000      -2.65180000      -2.44630000
H        3.05300000      -3.55520000      -0.43090000
H        2.76630000      -1.80750000      -0.59310000
H       -0.34270000      -2.98490000       1.27980000
H        1.06090000      -0.60160000       1.86150000
H       -0.69450000      -0.71330000       1.87350000
