21
Properties=species:S:1:pos:R:3 gdb_41993=T pbc="F F F"
C       -0.05560000       1.53600000      -0.19840000
C        1.40240000       2.01820000      -0.04410000
C        2.22230000       0.79770000      -0.49770000
C        3.67170000       0.69290000      -0.03430000
O        4.17950000      -0.59970000      -0.33210000
C        3.53110000      -1.64120000       0.37440000
C        2.03900000      -1.46730000       0.49650000
C        1.43160000      -0.36340000       0.07300000
C       -0.02570000       0.04060000       0.21570000
H       -0.76300000       2.12360000       0.39240000
H       -0.35980000       1.62740000      -1.24710000
H        1.61590000       2.92460000      -0.61790000
H        1.61750000       2.23560000       1.01050000
H        2.20810000       0.75220000      -1.59700000
H        4.32730000       1.39940000      -0.55190000
H        3.73250000       0.89780000       1.04810000
H        3.77480000      -2.56490000      -0.16560000
H        3.96510000      -1.74630000       1.38690000
H        1.49630000      -2.27130000       0.98920000
H       -0.36110000      -0.09300000       1.25050000
H       -0.69070000      -0.56810000      -0.40640000
