15
Properties=species:S:1:pos:R:3 gdb_22655=T pbc="F F F"
O       -0.08350000       1.31920000       0.00800000
N        0.02500000      -0.08140000       0.00390000
C       -1.13100000      -0.62910000       0.01150000
C       -1.27290000      -2.14630000       0.00900000
N       -2.73360000      -2.32420000       0.01980000
C       -3.39050000      -3.52750000       0.02210000
O       -4.59460000      -3.65030000       0.03130000
C       -3.35790000      -1.08080000       0.02760000
C       -2.47230000      -0.06580000       0.02310000
H        0.83920000       1.59430000       0.00150000
H       -0.82920000      -2.59820000      -0.88340000
H       -0.81560000      -2.60240000       0.89240000
H       -2.68600000      -4.38010000       0.01490000
H       -4.43760000      -1.06350000       0.03590000
H       -2.70000000       0.98670000       0.02730000
