17
Properties=species:S:1:pos:R:3 gdb_62394=T pbc="F F F"
N        0.01030000       1.45440000       0.04040000
C        0.02970000       0.00050000       0.01950000
C        0.93880000      -0.56480000       1.02360000
N        1.66230000      -0.94240000       1.84360000
C       -1.41160000      -0.63710000      -0.09960000
C       -1.37140000      -0.21390000      -1.60210000
C        0.10740000      -0.62100000      -1.42490000
O        0.05610000      -2.02280000      -1.17190000
C       -1.04720000      -2.11830000      -0.23050000
H       -0.30570000       1.78640000       0.94730000
H        0.95070000       1.81710000      -0.08770000
H       -2.21060000      -0.35660000       0.58550000
H       -1.95110000      -0.81430000      -2.30490000
H       -1.51960000       0.85140000      -1.74920000
H        0.91190000      -0.38850000      -2.12040000
H       -0.69830000      -2.58010000       0.69790000
H       -1.85750000      -2.71970000      -0.65590000
