16
Properties=species:S:1:pos:R:3 gdb_123356=T pbc="F F F"
C       -0.01180000      -1.18510000      -0.04130000
C       -0.03800000       0.01390000       0.03290000
C       -0.02340000       1.46720000       0.11660000
C        1.39560000       2.03300000      -0.09650000
N        1.41180000       3.48070000      -0.01900000
C        1.98440000       4.29030000       0.89640000
N        1.74580000       5.55710000       0.61150000
C        0.99720000       5.46410000      -0.52080000
N        0.76560000       4.23170000      -0.94500000
H       -0.00880000      -2.24500000      -0.10700000
H       -0.68530000       1.90440000      -0.63850000
H       -0.39830000       1.79580000       1.09350000
H        2.07800000       1.65190000       0.66680000
H        1.77360000       1.72790000      -1.07550000
H        2.55790000       3.91540000       1.73120000
H        0.61550000       6.32510000      -1.04900000
