17
Properties=species:S:1:pos:R:3 gdb_72571=T pbc="F F F"
O        0.07370000       1.38620000       0.08440000
C        0.01130000       0.00090000       0.07600000
C        0.70240000      -0.72210000       1.27610000
C        0.19390000      -2.18560000       1.13420000
C       -0.71110000      -2.08510000      -0.10870000
C       -1.36450000      -0.70530000       0.03850000
O        0.17430000      -1.89140000      -1.26340000
C        0.62040000      -0.61630000      -1.17900000
O        1.35820000      -0.08420000      -1.96170000
H        0.65960000       1.63640000      -0.64540000
H        1.79000000      -0.63200000       1.23000000
H        0.36540000      -0.24840000       2.20140000
H        0.99520000      -2.90900000       0.97130000
H       -0.38310000      -2.50970000       2.00430000
H       -1.34280000      -2.94290000      -0.32770000
H       -1.93900000      -0.59080000       0.96060000
H       -1.97320000      -0.41990000      -0.82240000
