14
Properties=species:S:1:pos:R:3 gdb_3695=T pbc="F F F"
C        0.01500000       1.47870000      -0.04890000
C       -0.00890000      -0.01450000       0.04520000
N       -0.08470000      -0.75510000      -1.05420000
N       -0.07580000      -2.03830000      -0.59700000
C        0.00580000      -2.11870000       0.75410000
N       -0.04280000      -3.35020000       1.41380000
C        0.05420000      -0.81740000       1.21410000
H        0.93690000       1.89390000       0.37380000
H       -0.05220000       1.78440000      -1.09510000
H       -0.82200000       1.92730000       0.49780000
H       -0.20630000      -2.79330000      -1.24750000
H        0.61790000      -4.02670000       1.04850000
H        0.11110000      -3.24480000       2.40760000
H        0.13990000      -0.49590000       2.24000000
