19
Properties=species:S:1:pos:R:3 gdb_38940=T pbc="F F F"
C       -0.05610000       1.57870000       0.05650000
C        1.49450000       1.44050000      -0.01710000
C        1.76720000       0.81760000       1.36680000
C        0.76840000      -0.38020000       1.28100000
O        1.39400000      -1.64650000       1.04150000
C        2.41040000      -1.59300000       0.08030000
O        2.05940000      -0.89560000      -1.10040000
C        1.19180000       0.19490000      -0.93130000
C       -0.02080000       0.02970000       0.02060000
H       -0.46740000       2.06720000       0.94320000
H       -0.50330000       2.00230000      -0.84590000
H        2.13530000       2.25660000      -0.34880000
H        2.79750000       0.50460000       1.53770000
H        1.49550000       1.50300000       2.17440000
H        0.16510000      -0.51950000       2.17910000
H        3.32700000      -1.15140000       0.50210000
H        2.61640000      -2.62590000      -0.21360000
H        0.90540000       0.50780000      -1.93700000
H       -0.88090000      -0.58600000      -0.23900000
