18
Properties=species:S:1:pos:R:3 gdb_51654=T pbc="F F F"
O       -0.36250000       0.73940000       0.41380000
C        0.17060000       1.69280000      -0.11710000
N        1.49500000       1.80370000      -0.39330000
C        2.46340000       0.76550000      -0.07790000
C        3.21260000       0.28150000      -1.35160000
C        4.43520000       1.17290000      -1.41850000
O        4.13640000       2.56490000      -1.19270000
C        4.65850000       1.78130000      -0.10130000
C        3.58670000       1.30040000       0.85460000
H       -0.38960000       2.59360000      -0.43820000
H        1.85120000       2.63630000      -0.83820000
H        1.89150000      -0.03560000       0.38900000
H        3.53520000      -0.76090000      -1.24180000
H        2.57720000       0.34320000      -2.23890000
H        5.23720000       0.98330000      -2.12650000
H        5.64060000       2.08220000       0.25280000
H        3.21510000       2.08100000       1.52370000
H        3.99580000       0.49380000       1.47480000
