23
Properties=species:S:1:pos:R:3 gdb_82762=T pbc="F F F"
C       -0.03070000       1.57650000       0.01980000
C        0.06560000       0.05150000      -0.02480000
C        0.93820000      -0.54660000      -1.15150000
C        2.37610000      -0.15940000      -0.70630000
C        2.07840000      -1.14400000       0.44250000
C        1.25350000      -1.98390000      -0.58020000
C        0.14510000      -2.72620000       0.18060000
C        0.05150000      -1.92890000       1.51780000
C        0.80530000      -0.62980000       1.18040000
H        0.94090000       2.05810000       0.16270000
H       -0.46300000       1.97010000      -0.90750000
H       -0.67560000       1.89570000       0.84590000
H       -0.95730000      -0.33710000      -0.09690000
H        0.59520000      -0.39910000      -2.17780000
H        3.13770000      -0.55020000      -1.38660000
H        2.59940000       0.88480000      -0.47600000
H        2.86340000      -1.58150000       1.06210000
H        1.84320000      -2.58760000      -1.27230000
H       -0.80290000      -2.72940000      -0.36790000
H        0.41380000      -3.77310000       0.35030000
H       -0.97890000      -1.74590000       1.83850000
H        0.55450000      -2.47140000       2.32670000
H        0.97780000       0.03120000       2.03310000
