18
Properties=species:S:1:pos:R:3 gdb_112495=T pbc="F F F"
C        0.09610000       1.53390000       0.20610000
C       -0.06530000       0.05430000      -0.15300000
N       -1.43000000      -0.41300000      -0.05470000
C       -2.32800000      -0.60030000       1.08650000
C       -3.38820000      -1.16420000       0.08040000
C       -4.64770000      -0.46650000      -0.03140000
C       -5.68720000       0.12910000      -0.12940000
C       -2.29860000      -0.86480000      -1.01150000
O       -2.21050000      -0.98520000      -2.20240000
H        1.14400000       1.83380000       0.10890000
H       -0.50610000       2.16190000      -0.45650000
H       -0.21290000       1.72970000       1.23790000
H        0.23880000      -0.12590000      -1.18860000
H        0.57750000      -0.56280000       0.48960000
H       -1.96550000      -1.32090000       1.82780000
H       -2.62990000       0.32590000       1.58330000
H       -3.53930000      -2.24210000       0.19230000
H       -6.60840000       0.64860000      -0.22450000
