23
Properties=species:S:1:pos:R:3 gdb_59733=T pbc="F F F"
C       -0.06890000       1.55650000      -0.01510000
C        0.06350000       0.02910000      -0.11530000
C        0.94210000      -0.34720000      -1.31830000
C        0.59710000      -0.58110000       1.19820000
C       -0.06650000      -0.10960000       2.50840000
C        0.27810000      -1.20680000       3.53540000
C        0.15350000      -2.50740000       2.73100000
C        0.49490000      -2.11750000       1.28830000
O        0.63830000      -2.90140000       0.38310000
H        0.90320000       2.02110000       0.19090000
H       -0.43640000       1.96930000      -0.96030000
H       -0.76130000       1.86500000       0.77340000
H       -0.94060000      -0.38670000      -0.28300000
H        1.94930000       0.07340000      -1.20430000
H        1.03290000      -1.42890000      -1.41910000
H        0.51930000       0.05980000      -2.24290000
H        1.67610000      -0.36010000       1.26660000
H        0.26690000       0.88130000       2.82400000
H       -1.15510000      -0.05880000       2.37170000
H        1.30920000      -1.07680000       3.88450000
H       -0.36790000      -1.17990000       4.41620000
H        0.78120000      -3.33520000       3.06970000
H       -0.88120000      -2.87540000       2.72740000
