18
Properties=species:S:1:pos:R:3 gdb_17772=T pbc="F F F"
O       -0.47750000       0.73500000       0.79030000
C        0.11430000       1.00550000      -0.22250000
C        1.44500000       1.72370000      -0.28640000
C        1.38020000       2.92990000      -1.22490000
C        0.75210000       4.29340000      -0.78030000
C        2.03500000       4.56060000       0.06210000
C        2.53620000       3.97870000      -1.29320000
C        1.51240000       4.92920000      -1.98050000
H       -0.30650000       0.73150000      -1.21950000
H        1.74810000       1.97180000       0.73230000
H        2.17770000       1.00980000      -0.69260000
H        1.03900000       2.59970000      -2.21430000
H       -0.28190000       4.47630000      -0.48440000
H        2.27340000       5.61080000       0.24970000
H        2.18850000       3.96560000       0.96310000
H        3.56920000       3.79400000      -1.59340000
H        1.17550000       4.65020000      -2.98290000
H        1.72220000       5.99930000      -1.90950000
