12
Properties=species:S:1:pos:R:3 gdb_128953=T pbc="F F F"
N       -0.01020000      -1.08940000      -0.00430000
C        0.01800000       0.06400000       0.00200000
C       -0.00500000       1.52450000       0.01060000
O        1.35430000       1.98570000      -0.00150000
C        1.52960000       3.29620000       0.00370000
N        2.67500000       3.90530000      -0.00570000
C        2.26500000       5.21350000       0.00580000
N        0.97660000       5.42080000       0.02150000
O        0.46000000       4.09600000       0.01990000
H       -0.54190000       1.89510000      -0.86890000
H       -0.52260000       1.88500000       0.90570000
H        2.95490000       6.04550000       0.00280000
