21
Properties=species:S:1:pos:R:3 gdb_104092=T pbc="F F F"
C       -0.05840000       1.55680000       0.09050000
C        0.02150000       0.02760000       0.02870000
C        0.75280000      -0.50770000      -1.20760000
O        0.08870000      -0.10530000      -2.41060000
C        2.26010000      -0.12220000      -1.28300000
C        2.91930000      -1.35910000      -1.83960000
C        2.09030000      -2.40110000      -1.88280000
C        0.74110000      -2.07250000      -1.29910000
O        0.52060000      -2.74870000      -0.06260000
H        0.93490000       2.01920000       0.10520000
H       -0.60960000       1.96510000      -0.76410000
H       -0.58460000       1.88110000       0.99290000
H        0.51850000      -0.35550000       0.92600000
H       -0.98840000      -0.39570000       0.03480000
H        0.19030000       0.84700000      -2.50390000
H        2.40930000       0.75460000      -1.92510000
H        2.67640000       0.14320000      -0.30140000
H        3.95590000      -1.37060000      -2.16040000
H        2.33840000      -3.39840000      -2.22820000
H       -0.09740000      -2.36300000      -1.93850000
H        1.35650000      -2.75270000       0.41660000
