18
Properties=species:S:1:pos:R:3 gdb_17412=T pbc="F F F"
O        0.00590000       1.36250000       0.15050000
C       -0.01260000      -0.03550000       0.06160000
C       -0.49170000      -0.75700000       1.28980000
C       -1.33490000      -0.75140000       0.04390000
C       -2.73790000      -0.12530000      -0.09020000
C       -3.15100000      -1.34000000      -0.93940000
C       -2.24640000      -1.49310000      -2.12980000
C       -1.75440000      -1.95240000      -0.78280000
H       -0.22720000       1.71680000      -0.71410000
H        0.81670000      -0.47550000      -0.49460000
H        0.01180000      -1.67500000       1.57650000
H       -0.81720000      -0.13490000       2.11750000
H       -3.26330000      -0.07090000       0.86660000
H       -2.80290000       0.85310000      -0.58020000
H       -4.11290000      -1.83460000      -0.88890000
H       -2.51890000      -2.28440000      -2.82140000
H       -1.80560000      -0.61930000      -2.60570000
H       -1.47780000      -2.98130000      -0.58470000
