18
Properties=species:S:1:pos:R:3 gdb_83489=T pbc="F F F"
C       -0.08870000       1.55190000       0.02820000
C        0.03970000       0.03370000       0.01260000
C        1.05210000      -0.59220000      -0.99020000
C        2.38010000      -0.05710000      -0.42040000
O        2.15780000      -0.10180000       0.99940000
C        0.80470000      -0.59130000       1.18930000
C        0.86500000      -2.07860000       0.78140000
O        0.90990000      -3.07170000       1.46490000
N        0.93750000      -2.00250000      -0.60270000
H        0.84430000       2.03560000       0.32640000
H       -0.37760000       1.93300000      -0.95720000
H       -0.86190000       1.85790000       0.73960000
H       -0.93660000      -0.43890000      -0.12390000
H        0.87680000      -0.42450000      -2.05240000
H        3.22960000      -0.69580000      -0.68650000
H        2.59550000       0.97140000      -0.73480000
H        0.49750000      -0.39380000       2.21310000
H        1.36830000      -2.75000000      -1.12710000
