15
Properties=species:S:1:pos:R:3 gdb_42806=T pbc="F F F"
O       -0.06250000      -0.03250000      -0.15720000
C       -0.04740000       1.14330000       0.01050000
C       -1.04200000       2.33010000       0.01410000
C       -0.83040000       2.96120000       1.39930000
C        0.75170000       2.95720000       1.41360000
C        1.35980000       2.22470000       2.50960000
C        1.86330000       1.59660000       3.40220000
C        0.97170000       2.30680000       0.01660000
O       -0.01930000       2.99750000      -0.80160000
H       -2.03310000       2.30290000      -0.43330000
H       -1.23290000       3.97450000       1.44410000
H       -1.25790000       2.36710000       2.20950000
H        1.13260000       3.98220000       1.38570000
H        2.31040000       1.04460000       4.19170000
H        1.97430000       2.26740000      -0.40200000
