20
Properties=species:S:1:pos:R:3 gdb_61959=T pbc="F F F"
C        0.03320000       1.82880000       0.21880000
C       -0.02160000       0.30670000       0.05710000
C        0.69220000      -0.41240000       1.21380000
C        0.77510000      -1.94060000       1.02890000
C        1.47290000      -2.59660000       2.12740000
C        2.05210000      -3.11050000       3.04700000
N       -1.40900000      -0.13440000      -0.08330000
C       -1.85040000      -0.91690000      -1.10410000
O       -1.15420000      -1.38510000      -1.98090000
H        1.06980000       2.17300000       0.27600000
H       -0.44960000       2.32680000      -0.62630000
H       -0.47190000       2.14770000       1.13880000
H        0.45760000       0.02300000      -0.88470000
H        1.70590000      -0.00740000       1.30530000
H        0.18280000      -0.18860000       2.15980000
H       -0.23640000      -2.35350000       0.93840000
H        1.27620000      -2.16810000       0.07990000
H        2.56240000      -3.57960000       3.85110000
H       -2.08850000       0.20510000       0.58060000
H       -2.94390000      -1.08840000      -1.04620000
