16
Properties=species:S:1:pos:R:3 gdb_17907=T pbc="F F F"
O        0.02060000       0.05210000      -0.08990000
C       -0.01070000       1.24450000       0.00860000
C       -1.15820000       2.26180000       0.05540000
C       -0.74440000       3.09430000       1.27470000
N        0.75380000       3.02890000       1.23490000
C        1.10480000       2.31080000      -0.00270000
C        0.65690000       3.10170000      -1.24910000
N       -0.84960000       3.06970000      -1.15350000
H       -2.17530000       1.87650000       0.05370000
H       -1.12380000       4.11680000       1.18180000
H       -1.11930000       2.66160000       2.20970000
H        1.15740000       3.95850000       1.23840000
H        2.12770000       1.93930000      -0.00790000
H        1.01720000       4.13720000      -1.22680000
H        1.01350000       2.63900000      -2.17700000
H       -1.22870000       2.60120000      -1.96960000
