14
Properties=species:S:1:pos:R:3 gdb_20602=T pbc="F F F"
C        0.11860000       1.51100000       0.03690000
C       -0.03750000       0.03510000       0.03750000
C       -1.13630000      -0.76560000      -0.06230000
N       -2.48660000      -0.38060000      -0.22150000
C       -0.57640000      -2.07690000      -0.00530000
O       -1.29920000      -3.20800000      -0.08940000
N        0.72570000      -2.07610000       0.11720000
O        1.07420000      -0.71880000       0.16410000
H        0.93080000       1.81440000      -0.63050000
H       -0.81380000       1.96760000      -0.30360000
H        0.34990000       1.89670000       1.03650000
H       -2.92360000      -0.14790000       0.66460000
H       -3.02450000      -1.13640000      -0.63090000
H       -0.68450000      -3.95310000      -0.06270000
