14
Properties=species:S:1:pos:R:3 gdb_128618=T pbc="F F F"
C       -0.03000000       1.39660000       0.09450000
O       -0.03690000      -0.03400000      -0.06990000
C        0.58320000      -0.49940000      -1.14820000
N        1.19030000       0.23110000      -2.00560000
C        1.77330000      -0.44980000      -3.07110000
N        2.12070000       0.14400000      -4.13820000
N        2.02670000      -1.87070000      -2.92270000
N        1.41780000      -2.53420000      -2.06230000
N        0.51700000      -1.86540000      -1.24920000
H        0.99170000       1.75840000       0.22590000
H       -0.47040000       1.88020000      -0.77950000
H       -0.62550000       1.58280000       0.98730000
H        2.56110000      -0.53630000      -4.76000000
H        0.17200000      -2.42340000      -0.48300000
