19
Properties=species:S:1:pos:R:3 gdb_78951=T pbc="F F F"
C       -0.00880000       1.49580000       0.01100000
C        0.07930000      -0.00720000      -0.01760000
C       -1.14810000      -0.85190000       0.42160000
C       -0.57150000      -2.27360000       0.32480000
C       -0.44000000      -1.47590000       1.60140000
C        0.88420000      -0.90040000       1.01280000
C        0.86460000      -1.95760000      -0.15730000
C        0.74050000      -0.80180000      -1.17670000
O        0.05980000      -0.98390000      -2.39030000
H        0.97440000       1.95490000      -0.13890000
H       -0.67030000       1.86090000      -0.78380000
H       -0.40690000       1.85510000       0.96670000
H       -2.20130000      -0.63070000       0.30170000
H       -1.18330000      -3.14550000       0.13260000
H       -0.78210000      -1.68420000       2.60620000
H        1.77520000      -0.57610000       1.54360000
H        1.58030000      -2.77120000      -0.26300000
H        1.72270000      -0.38330000      -1.42370000
H       -0.79650000      -1.37230000      -2.17610000
