12
Properties=species:S:1:pos:R:3 gdb_21888=T pbc="F F F"
O        0.06900000       1.34550000      -0.00230000
C        0.06470000       0.00010000       0.06430000
N        0.08750000      -0.75250000      -1.03030000
N        0.07440000      -2.01690000      -0.55780000
C        0.04400000      -2.07740000       0.80280000
C        0.03690000      -0.76130000       1.24770000
C        0.02590000      -3.30140000       1.50280000
C        0.01070000      -4.35370000       2.08800000
H        0.09020000       1.58430000      -0.93760000
H        0.08700000      -2.79050000      -1.19970000
H        0.01500000      -0.41560000       2.26630000
H       -0.00280000      -5.27780000       2.61100000
