19
Properties=species:S:1:pos:R:3 gdb_66985=T pbc="F F F"
C       -0.01650000       1.51330000       0.01380000
C       -0.01950000       0.01180000      -0.00320000
C        1.17590000      -0.87260000      -0.37250000
C        0.64040000      -2.12760000      -1.06780000
C       -0.68670000      -2.23110000      -0.27390000
C       -0.19670000      -2.15150000       1.19430000
C        0.65380000      -0.88760000       1.03860000
C       -1.20930000      -0.78950000      -0.45210000
O       -2.27860000      -0.40180000      -0.84380000
H        0.94080000       1.90540000       0.37060000
H       -0.19530000       1.91650000      -0.98820000
H       -0.80530000       1.89900000       0.66760000
H        2.12520000      -0.41940000      -0.62790000
H        0.47520000      -1.98710000      -2.14080000
H        1.28860000      -2.99860000      -0.92410000
H       -1.38290000      -3.02190000      -0.53990000
H       -1.02150000      -2.02990000       1.90380000
H        0.39490000      -3.02420000       1.49100000
H        1.20500000      -0.44570000       1.85880000
