19
Properties=species:S:1:pos:R:3 gdb_50764=T pbc="F F F"
O       -0.85840000       0.91210000       0.68760000
C        0.26110000       0.63540000       0.34620000
C        1.31250000       1.66890000      -0.04490000
C        1.25900000       2.91210000       0.85390000
C        2.10610000       4.07120000       0.31200000
C        3.61740000       3.92510000       0.56290000
O        4.11340000       2.58910000       0.57340000
C        3.67100000       1.72490000      -0.42890000
O        2.54430000       0.97330000      -0.04750000
H        0.62270000      -0.41280000       0.27320000
H        1.06390000       1.98290000      -1.07800000
H        0.20670000       3.20790000       0.90850000
H        1.57300000       2.63620000       1.86650000
H        1.90790000       4.18100000      -0.76150000
H        1.78740000       5.01410000       0.77080000
H        4.17410000       4.52680000      -0.17130000
H        3.86960000       4.30970000       1.55580000
H        3.47120000       2.26680000      -1.36980000
H        4.46420000       0.98990000      -0.58610000
