18
Properties=species:S:1:pos:R:3 gdb_88718=T pbc="F F F"
C       -0.72250000       0.95620000       0.29290000
N        0.11430000      -0.23100000       0.14560000
C        1.50260000      -0.04460000      -0.24110000
C        1.15030000      -0.60070000       1.10100000
C        1.56020000       0.11570000       2.35570000
O        1.04810000       1.40220000       2.67460000
C        0.69650000       0.30810000       3.54530000
C       -0.67540000      -0.11450000       3.60250000
C       -1.80990000      -0.49600000       3.71540000
H       -0.18820000       1.84680000       0.64380000
H       -1.16460000       1.16830000      -0.68630000
H       -1.52970000       0.74230000       0.99700000
H        1.88590000      -0.68960000      -1.02840000
H        1.88800000       0.97560000      -0.25640000
H        1.23620000      -1.68050000       1.23350000
H        2.62590000      -0.00120000       2.57380000
H        1.19350000       0.35590000       4.51430000
H       -2.81480000      -0.83000000       3.79930000
