16
Properties=species:S:1:pos:R:3 gdb_10057=T pbc="F F F"
C        0.07530000       0.95440000       0.83890000
O       -0.54160000       0.08600000      -0.09560000
C        0.29780000      -0.42560000      -1.10100000
C        1.14380000      -1.64940000      -0.68250000
C        2.35080000      -1.32840000       0.06620000
C        3.35790000      -1.06030000       0.66600000
C       -0.62730000      -0.78160000      -2.26600000
O       -0.37420000      -1.59820000      -3.11110000
H        0.80060000       0.43150000       1.47170000
H        0.58890000       1.78440000       0.33130000
H       -0.72410000       1.36020000       1.46340000
H        0.97530000       0.36280000      -1.47770000
H        0.49820000      -2.31840000      -0.10110000
H        1.40470000      -2.18390000      -1.60360000
H        4.24850000      -0.83190000       1.19720000
H       -1.56830000      -0.19140000      -2.26410000
