18
Properties=species:S:1:pos:R:3 gdb_39731=T pbc="F F F"
C        0.05980000       1.50180000       0.01560000
O        1.20320000       0.63030000      -0.00020000
C       -0.09410000       0.04900000      -0.00660000
C       -0.54520000      -0.83510000       1.12740000
C       -1.76000000      -1.54750000       0.63140000
C       -2.03330000      -1.05790000      -0.79150000
C       -0.55440000      -0.82360000      -1.17410000
C        0.06630000      -2.16190000      -0.72660000
N       -0.45330000      -2.24600000       0.66700000
H       -0.09110000       2.05250000       0.94330000
H       -0.09850000       2.07820000      -0.89500000
H       -0.32640000      -0.62060000       2.16570000
H       -2.53820000      -1.92120000       1.28560000
H       -2.52270000      -1.81220000      -1.41510000
H       -2.63070000      -0.14150000      -0.81180000
H       -0.33320000      -0.46010000      -2.17490000
H       -0.28090000      -3.02300000      -1.30450000
H        1.15920000      -2.14750000      -0.71470000
