21
Properties=species:S:1:pos:R:3 gdb_114763=T pbc="F F F"
C       -0.19280000       1.32260000       0.07720000
O        0.05850000      -0.06170000       0.03750000
C        0.72640000      -0.49910000      -1.13990000
C        1.40880000      -1.83130000      -0.80060000
C        1.97400000      -2.52280000      -2.04000000
C        1.25340000      -3.70580000      -2.64430000
C        1.21890000      -2.35730000      -3.33790000
C       -0.00740000      -1.52170000      -3.29580000
C       -0.23370000      -0.66530000      -2.29920000
H        0.74020000       1.90630000       0.02240000
H       -0.85100000       1.65920000      -0.73830000
H       -0.68640000       1.53530000       1.02890000
H        1.49770000       0.24560000      -1.40720000
H        2.19710000      -1.65610000      -0.06240000
H        0.65490000      -2.45770000      -0.31270000
H        3.05670000      -2.53630000      -2.11280000
H        1.84220000      -4.49770000      -3.09530000
H        0.34510000      -4.04010000      -2.15320000
H        1.80420000      -2.28460000      -4.25120000
H       -0.72450000      -1.62780000      -4.10700000
H       -1.13790000      -0.06360000      -2.27760000
