19
Properties=species:S:1:pos:R:3 gdb_122600=T pbc="F F F"
C        0.90070000       1.13150000       0.69690000
C       -0.00080000       0.16710000      -0.05380000
O        0.73930000      -0.40680000      -1.11710000
C       -0.00590000      -1.32160000      -1.88550000
C        0.90430000      -1.85990000      -2.97470000
C        1.98030000      -2.88450000      -2.57720000
O        1.33720000      -3.89930000      -3.42030000
C        0.34600000      -3.02910000      -3.79570000
O       -0.58130000      -3.24060000      -4.50820000
H        1.77240000       0.60830000       1.10000000
H        1.25370000       1.92430000       0.03150000
H        0.35700000       1.59140000       1.52730000
H       -0.36990000      -0.62490000       0.61910000
H       -0.88610000       0.69080000      -0.45100000
H       -0.38010000      -2.14810000      -1.25650000
H       -0.88450000      -0.83880000      -2.34280000
H        1.27160000      -1.03950000      -3.59590000
H        2.99720000      -2.68670000      -2.91920000
H        1.97730000      -3.19320000      -1.53000000
