15
Properties=species:S:1:pos:R:3 gdb_26736=T pbc="F F F"
C       -0.03040000       1.56380000       0.09380000
C        0.01850000       0.07960000      -0.01070000
C        0.05380000      -0.74920000      -1.09350000
O        0.05190000      -0.37880000      -2.38940000
N        0.09410000      -2.08230000      -0.73660000
C        0.08420000      -2.08900000       0.56670000
N        0.03870000      -0.80970000       1.08420000
C        0.01790000      -0.49640000       2.44170000
O        0.03770000      -1.32000000       3.31860000
H        0.83780000       1.98140000       0.61850000
H       -0.03600000       1.97990000      -0.91620000
H       -0.93180000       1.92420000       0.60470000
H        0.08230000      -1.19140000      -2.90890000
H        0.10700000      -2.95050000       1.21400000
H       -0.01870000       0.59130000       2.61860000
