17
Properties=species:S:1:pos:R:3 gdb_88897=T pbc="F F F"
C        0.16650000       1.52220000      -0.28040000
C        0.03500000       0.05120000       0.03460000
N        1.27420000      -0.73740000       0.13470000
C        0.42950000      -0.58520000       1.32250000
C        1.03120000       0.18560000       2.49280000
C        1.80940000      -0.67630000       3.36880000
C        2.44060000      -1.41660000       4.08560000
C        3.15390000      -2.25050000       4.89710000
N        3.75880000      -2.96180000       5.58860000
H        1.04590000       1.96100000       0.19610000
H        0.27260000       1.66890000      -1.36020000
H       -0.72160000       2.07340000       0.04700000
H       -0.81000000      -0.42900000      -0.45880000
H        1.16720000      -1.65970000      -0.27670000
H       -0.16230000      -1.44330000       1.63570000
H        1.67490000       0.98620000       2.11540000
H        0.23160000       0.66090000       3.07650000
