15
Properties=species:S:1:pos:R:3 gdb_86699=T pbc="F F F"
O        0.23110000       1.21360000      -0.54450000
C        0.04430000      -0.04270000       0.02890000
C        0.04940000      -0.13330000       1.58830000
N       -1.34730000      -0.55990000       1.52260000
C       -2.14120000      -1.11280000       2.47550000
O       -1.80730000      -1.25150000       3.63090000
C       -1.47390000      -0.45220000       0.06840000
C       -2.42410000       0.55520000      -0.40770000
N       -3.20380000       1.32070000      -0.78180000
H        1.17390000       1.39910000      -0.59890000
H        0.65430000      -0.81630000      -0.45030000
H        0.71710000      -0.87580000       2.03430000
H        0.18930000       0.83540000       2.07840000
H       -3.12720000      -1.41780000       2.07200000
H       -1.68940000      -1.40100000      -0.43600000
