20
Properties=species:S:1:pos:R:3 gdb_119597=T pbc="F F F"
C        0.23300000       0.96220000       1.46340000
O       -0.39490000       0.03570000       0.60130000
C        0.49700000      -0.69040000      -0.22840000
C        0.72950000      -2.09690000       0.27760000
N       -0.42540000      -2.86620000       0.81870000
C        0.71240000      -2.52370000       1.70470000
C        1.72430000      -3.65220000       1.87920000
C        2.25640000      -3.85150000       0.47310000
C        1.72760000      -2.98740000      -0.39530000
H        0.73790000       1.75950000       0.89790000
H       -0.55130000       1.41080000       2.07830000
H        0.97120000       0.48530000       2.12340000
H        0.03860000      -0.73820000      -1.22600000
H        1.45530000      -0.16210000      -0.33580000
H       -1.15920000      -2.18340000       1.01480000
H        0.53170000      -1.82550000       2.51390000
H        2.52230000      -3.37690000       2.58160000
H        1.25280000      -4.56170000       2.27080000
H        2.95930000      -4.63870000       0.22360000
H        1.94420000      -2.94090000      -1.45660000
