23
Properties=species:S:1:pos:R:3 gdb_59536=T pbc="F F F"
C       -0.15300000       1.58090000      -0.12640000
C        0.03010000       0.07380000       0.09960000
C        0.60170000      -0.22820000       1.49190000
C       -1.30220000      -0.64640000      -0.07070000
O       -1.95530000      -0.45810000      -1.36530000
C       -2.26350000      -1.85560000      -1.42360000
C       -1.02860000      -2.68180000      -1.57860000
C        0.16070000      -2.27220000      -2.42030000
C       -1.42600000      -2.16580000      -0.19830000
H        0.80310000       2.10810000      -0.04640000
H       -0.57390000       1.77860000      -1.11580000
H       -0.83330000       2.00880000       0.62000000
H        0.73220000      -0.30550000      -0.64940000
H       -0.07250000       0.12790000       2.28020000
H        0.75460000      -1.30230000       1.63970000
H        1.56580000       0.27030000       1.63230000
H       -1.99510000      -0.29050000       0.70790000
H       -3.27070000      -2.13290000      -1.71490000
H       -1.27110000      -3.74230000      -1.64080000
H        0.16660000      -1.19280000      -2.58240000
H        1.11060000      -2.56310000      -1.95930000
H        0.10740000      -2.75460000      -3.40240000
H       -1.62870000      -2.83800000       0.62500000
