18
Properties=species:S:1:pos:R:3 gdb_10320=T pbc="F F F"
C       -0.25280000       0.01730000       1.02690000
C        0.58960000      -0.93830000       0.18220000
N        0.70640000      -0.52130000      -1.22690000
C        1.83930000       0.18230000      -1.58960000
O        2.10650000       0.64650000      -2.67350000
C       -0.35710000      -0.84820000      -2.09930000
C       -0.24190000      -0.45450000      -3.55160000
N       -1.34820000      -1.46840000      -1.58620000
H        0.17200000       1.02630000       1.02520000
H       -1.27420000       0.06270000       0.64510000
H       -0.28710000      -0.33520000       2.06260000
H        1.60510000      -1.00730000       0.58270000
H        0.15160000      -1.93650000       0.19280000
H        2.52320000       0.28170000      -0.72570000
H       -0.16290000       0.62810000      -3.66720000
H        0.65490000      -0.87280000      -4.01260000
H       -1.12750000      -0.81540000      -4.07990000
H       -2.04430000      -1.66500000      -2.30250000
