18
Properties=species:S:1:pos:R:3 gdb_15386=T pbc="F F F"
C        0.16210000       1.52290000       0.09900000
C       -0.01360000       0.00700000       0.22020000
C       -1.37650000      -0.46110000      -0.28890000
N       -1.47880000      -1.91970000      -0.19560000
C       -2.00630000      -2.47430000       1.03480000
C       -2.81200000      -2.53240000      -0.23090000
C       -4.00300000      -1.72370000      -0.33790000
N       -4.95990000      -1.08400000      -0.45540000
H        1.14260000       1.83550000       0.46920000
H        0.07980000       1.85020000      -0.94320000
H       -0.59870000       2.06030000       0.67540000
H        0.76900000      -0.51430000      -0.34210000
H        0.10190000      -0.29840000       1.26800000
H       -2.18210000       0.04680000       0.26670000
H       -1.49710000      -0.19110000      -1.34430000
H       -1.53600000      -3.38210000       1.40110000
H       -2.35850000      -1.78700000       1.80260000
H       -2.86790000      -3.46430000      -0.78670000
