18
Properties=species:S:1:pos:R:3 gdb_126905=T pbc="F F F"
C        0.07630000       1.47850000      -0.06240000
C       -0.03440000      -0.00880000       0.25450000
N       -1.36250000      -0.50690000      -0.09240000
C       -1.64870000      -1.83690000      -0.09750000
C       -2.85970000      -2.48580000       0.00090000
N       -4.10030000      -1.82600000       0.21360000
C       -2.49270000      -3.84850000      -0.14400000
N       -1.20470000      -4.03010000      -0.30170000
O       -0.65790000      -2.71360000      -0.27450000
H        1.07400000       1.84730000       0.19080000
H       -0.10610000       1.66510000      -1.12450000
H       -0.64930000       2.06230000       0.51560000
H        0.69490000      -0.57690000      -0.32900000
H        0.19860000      -0.18880000       1.31560000
H       -2.14810000       0.04160000       0.23330000
H       -4.71540000      -1.89500000      -0.59120000
H       -4.60240000      -2.20830000       1.00800000
H       -3.13650000      -4.71900000      -0.12980000
