21
Properties=species:S:1:pos:R:3 gdb_41436=T pbc="F F F"
C        0.00620000       1.51560000      -0.18440000
C        1.57290000       1.48190000       0.07440000
C        1.35400000       0.16050000       0.89220000
C        1.04580000       0.29670000       2.38610000
C       -0.10200000      -0.74110000       2.53340000
C       -0.20880000      -1.21610000       1.08880000
C        1.27370000      -1.36050000       0.49920000
C        0.72980000      -0.97770000      -0.88270000
C        0.03350000      -0.00650000       0.11120000
H       -0.51560000       2.10180000       0.57680000
H       -0.34190000       1.83030000      -1.17210000
H        2.14510000       1.37460000      -0.84810000
H        1.99260000       2.31500000       0.64290000
H        1.91440000       0.05970000       3.00980000
H        0.72710000       1.30960000       2.65430000
H        0.14840000      -1.56520000       3.20920000
H       -1.03260000      -0.29260000       2.89570000
H       -0.93850000      -1.99400000       0.84640000
H        1.96220000      -2.17720000       0.74680000
H        1.43940000      -0.55110000      -1.59510000
H        0.08240000      -1.70680000      -1.37860000
