18
Properties=species:S:1:pos:R:3 gdb_54984=T pbc="F F F"
C        0.05480000       1.42240000      -0.09620000
C       -0.06680000      -0.08730000      -0.02920000
O        0.21580000      -0.74220000       0.94940000
N       -0.60860000      -0.67270000      -1.17600000
C       -0.08570000      -0.58590000      -2.53260000
C       -0.15190000      -1.88120000      -1.78820000
C        0.98200000      -2.81410000      -1.36160000
O        0.18320000      -3.95930000      -1.73820000
C       -0.96660000      -3.14330000      -2.05000000
H        0.93170000       1.70230000      -0.69120000
H       -0.82210000       1.86800000      -0.57290000
H        0.17990000       1.81500000       0.91280000
H       -0.80970000      -0.36310000      -3.31310000
H        0.89690000      -0.13880000      -2.67580000
H        1.91000000      -2.74840000      -1.94250000
H        1.20490000      -2.79290000      -0.29050000
H       -1.79470000      -3.30030000      -1.34770000
H       -1.31970000      -3.29740000      -3.07700000
