16
Properties=species:S:1:pos:R:3 gdb_133001=T pbc="F F F"
C       -0.16830000       1.39930000       0.01440000
N       -0.11130000      -0.04870000      -0.02320000
C        0.59060000      -0.59830000      -0.95260000
C        1.36500000       0.04780000      -2.01270000
C        2.06310000      -0.65930000      -2.93250000
N        2.08240000      -2.02490000      -2.92060000
C        1.37990000      -2.71970000      -1.95630000
C        0.67070000      -2.05600000      -1.02040000
F        0.00600000      -2.75580000      -0.10670000
H        0.82200000       1.86370000       0.15210000
H       -0.60280000       1.83430000      -0.90070000
H       -0.79530000       1.71240000       0.85400000
H        1.38460000       1.12730000      -2.06930000
H        2.63930000      -0.19020000      -3.72100000
H        2.60640000      -2.53110000      -3.61210000
H        1.42400000      -3.79950000      -1.98580000
