21
Properties=species:S:1:pos:R:3 gdb_41170=T pbc="F F F"
C       -0.01240000       1.52700000      -0.21110000
C        1.52700000       1.53330000       0.08820000
C        1.32830000       0.21000000       0.85150000
C        0.79800000       0.28370000       2.30580000
C        0.13170000      -1.10450000       2.21940000
C       -0.89710000      -0.81350000       1.04940000
C       -0.01810000      -0.00780000       0.07170000
C        1.31020000      -1.91130000       1.67620000
C        2.05730000      -1.10960000       0.89980000
H       -0.57880000       2.10310000       0.52510000
H       -0.32350000       1.84270000      -1.20950000
H        2.10810000       1.40050000      -0.82960000
H        1.93890000       2.38130000       0.64220000
H        1.60800000       0.33180000       3.03810000
H        0.09120000       1.09960000       2.48600000
H       -0.33320000      -1.50100000       3.12330000
H       -1.29840000      -1.72840000       0.60710000
H       -1.74010000      -0.23600000       1.44280000
H        0.15470000      -0.54650000      -0.86290000
H        1.44740000      -2.97410000       1.83420000
H        2.90910000      -1.38960000       0.29160000
