21
Properties=species:S:1:pos:R:3 gdb_87155=T pbc="F F F"
C        0.00540000       1.68270000       0.33630000
C       -0.05110000       0.19770000       0.03800000
C        0.93340000      -0.38540000      -0.96040000
C        1.06780000      -0.68520000       0.51530000
O        2.08310000      -0.08050000       1.26580000
C       -1.44870000      -0.37770000       0.08110000
C       -2.40440000      -0.08950000      -1.10340000
C       -2.51260000      -1.62210000      -1.20000000
O       -1.50100000      -1.80150000      -0.18490000
H        1.03930000       2.02390000       0.40500000
H       -0.50220000       2.26210000      -0.44340000
H       -0.48110000       1.90880000       1.29250000
H        0.60300000      -1.19170000      -1.60600000
H        1.65590000       0.29870000      -1.39340000
H        0.79520000      -1.69030000       0.83260000
H        2.91140000      -0.51800000       1.04370000
H       -1.89930000      -0.15760000       1.06090000
H       -3.32220000       0.45130000      -0.86950000
H       -1.91020000       0.37980000      -1.95620000
H       -3.47760000      -2.04000000      -0.88540000
H       -2.22180000      -2.07980000      -2.15240000
