17
Properties=species:S:1:pos:R:3 gdb_38288=T pbc="F F F"
C       -0.13420000       1.51700000      -0.13800000
C        1.40070000       1.43080000      -0.01130000
O        1.21210000       0.27060000       0.87980000
C        0.05910000      -0.02780000       0.01630000
C        0.71080000      -0.31160000      -1.31060000
C        0.44320000      -0.59800000      -2.57710000
C        1.43930000       0.17530000      -3.43340000
O        1.99060000       1.17240000      -2.55240000
C        1.89740000       0.63170000      -1.24990000
H       -0.58560000       1.95350000       0.75400000
H       -0.57560000       1.90340000      -1.05820000
H        2.02030000       2.22040000       0.41020000
H       -0.68280000      -0.68990000       0.45710000
H       -0.38750000      -1.15620000      -2.98860000
H        2.24370000      -0.45800000      -3.84360000
H        0.95640000       0.68610000      -4.27470000
H        2.83600000       0.13250000      -0.96290000
