17
Properties=species:S:1:pos:R:3 gdb_106997=T pbc="F F F"
O        0.00320000       1.47750000       0.27330000
C        0.05490000       0.08810000      -0.00370000
C       -1.33150000      -0.49970000      -0.01730000
C       -2.04740000      -1.12180000       1.17480000
C       -1.91700000      -1.95100000      -0.05410000
C       -2.98310000      -1.53320000      -1.06810000
O       -4.30970000      -1.73690000      -0.64740000
C       -2.35940000      -0.10270000      -1.01770000
O       -2.50780000       0.89050000      -1.68360000
H       -0.56730000       1.87290000      -0.39760000
H        0.54830000      -0.10630000      -0.96940000
H        0.67070000      -0.36900000       0.77770000
H       -1.37820000      -1.36980000       1.99270000
H       -3.02390000      -0.76660000       1.48470000
H       -1.35150000      -2.87230000      -0.09410000
H       -2.79440000      -1.96300000      -2.06470000
H       -4.88860000      -1.26410000      -1.25540000
