27
Properties=species:S:1:pos:R:3 gdb_118225=T pbc="F F F"
C       -0.26170000       1.41520000      -0.10040000
C        0.07340000      -0.06440000      -0.20090000
O        0.53190000      -0.50240000       1.06170000
C        0.75740000      -1.90330000       1.18230000
C        2.05570000      -2.33150000       0.49010000
C        0.79070000      -2.21800000       2.68080000
C       -0.48570000      -1.85660000       3.46060000
C       -1.69200000      -2.70820000       3.04000000
C       -0.24010000      -1.98230000       4.97030000
H        0.62300000       1.98860000       0.19100000
H       -0.61820000       1.79260000      -1.06370000
H       -1.03970000       1.58350000       0.64980000
H       -0.81710000      -0.64210000      -0.50220000
H        0.83680000      -0.22410000      -0.97870000
H       -0.08370000      -2.43910000       0.71090000
H        2.90960000      -1.80280000       0.92590000
H        2.21660000      -3.40770000       0.61030000
H        2.03260000      -2.11890000      -0.58250000
H        1.00890000      -3.28730000       2.80620000
H        1.63960000      -1.67260000       3.11320000
H       -0.71250000      -0.80810000       3.23530000
H       -1.50100000      -3.77450000       3.21530000
H       -2.58210000      -2.43410000       3.61620000
H       -1.93680000      -2.58350000       1.98090000
H        0.00630000      -3.01550000       5.24540000
H        0.59040000      -1.34610000       5.29440000
H       -1.12800000      -1.69210000       5.54210000
