18
Properties=species:S:1:pos:R:3 gdb_93213=T pbc="F F F"
C       -0.23280000       1.47920000       0.03460000
C        0.06360000      -0.02140000       0.00090000
C        0.84920000      -0.39640000      -1.24660000
O        1.19350000      -1.79540000      -1.24090000
C        1.70230000      -2.28290000      -0.09270000
N        2.22040000      -3.43820000       0.00330000
C        1.56270000      -1.41980000       1.13270000
N        2.33710000      -1.82680000       2.18090000
N        0.78450000      -0.40560000       1.21020000
H        0.69790000       2.05580000       0.04000000
H       -0.83070000       1.78680000      -0.82960000
H       -0.78250000       1.72440000       0.94630000
H       -0.89660000      -0.56160000      -0.02210000
H        0.27590000      -0.24520000      -2.16400000
H        1.77200000       0.19670000      -1.30430000
H        2.21400000      -3.91400000      -0.90070000
H        2.66690000      -2.77910000       2.13120000
H        2.08970000      -1.45610000       3.08450000
