13
Properties=species:S:1:pos:R:3 gdb_133378=T pbc="F F F"
N        0.01010000       1.30730000       0.13420000
C       -0.00070000      -0.04540000       0.05750000
N       -1.13140000      -0.70520000       0.06190000
N       -1.03630000      -2.04550000       0.02890000
N        0.06290000      -2.77860000      -0.01010000
C        1.17930000      -2.12700000      -0.02790000
F        2.29500000      -2.85050000      -0.07530000
C        1.31610000      -0.69530000      -0.00710000
N        2.38510000       0.02450000      -0.04440000
H        0.90040000       1.73930000      -0.06380000
H       -0.84090000       1.81370000      -0.03890000
H       -1.90670000      -2.54850000       0.04260000
H        3.21450000      -0.56700000      -0.09550000
