17
Properties=species:S:1:pos:R:3 gdb_37827=T pbc="F F F"
C       -0.11210000       1.62410000       0.11900000
C        1.40490000       1.33150000       0.03170000
C        1.26370000      -0.03510000       0.79880000
O        1.95740000      -0.82410000      -0.20730000
C        1.16760000       0.15200000      -0.96370000
C        0.65180000      -0.18620000      -2.33660000
O       -0.68800000      -0.67840000      -2.12490000
C       -0.95000000      -0.90790000      -0.72030000
C       -0.06130000       0.08610000      -0.02080000
H       -0.48430000       2.02280000       1.06610000
H       -0.54180000       2.17510000      -0.72180000
H        2.25540000       2.01310000       0.06410000
H        1.43320000      -0.26520000       1.85100000
H        0.59580000       0.67700000      -3.00780000
H        1.28010000      -0.95760000      -2.79850000
H       -2.02280000      -0.76460000      -0.57210000
H       -0.67900000      -1.93460000      -0.43920000
