21
Properties=species:S:1:pos:R:3 gdb_86189=T pbc="F F F"
C        0.04190000       1.55930000       0.10550000
C        0.03540000       0.06680000      -0.01400000
C       -0.03150000      -0.69030000      -1.11810000
C       -0.11920000      -0.26180000      -2.55010000
C       -0.08900000      -2.17020000      -0.77850000
O        0.73430000      -2.99070000      -1.60240000
C        0.25950000      -2.21640000       0.72450000
C        0.03390000      -0.78140000       1.24660000
O        0.96720000      -0.35810000       2.23640000
H        0.82610000       1.88600000       0.79620000
H        0.19030000       2.05740000      -0.85540000
H       -0.90620000       1.91930000       0.52700000
H       -1.11760000      -0.47030000      -2.95750000
H        0.07950000       0.80410000      -2.68290000
H        0.58580000      -0.83060000      -3.16510000
H       -1.09990000      -2.55930000      -0.95950000
H        1.64310000      -2.68920000      -1.49060000
H       -0.29620000      -2.97570000       1.27890000
H        1.32480000      -2.46070000       0.82750000
H       -0.93520000      -0.69670000       1.75640000
H        1.84520000      -0.40430000       1.84110000
