12
Properties=species:S:1:pos:R:3 gdb_575=T pbc="F F F"
N       -0.00980000      -1.04040000       0.43320000
C       -0.00340000       0.07240000       0.12340000
C        0.01150000       1.48370000      -0.26890000
C        1.40090000       2.09940000      -0.20660000
C        1.54000000       3.53940000       0.12010000
N        1.98190000       2.50780000       1.07450000
H       -0.39010000       1.56320000      -1.28640000
H       -0.67530000       2.03470000       0.38500000
H        2.11820000       1.64100000      -0.88310000
H        2.33760000       4.12570000      -0.32590000
H        0.63310000       4.10000000       0.33520000
H        1.30390000       2.40250000       1.82590000
