19
Properties=species:S:1:pos:R:3 gdb_99334=T pbc="F F F"
C        0.14520000       1.49180000       0.05190000
C       -0.07170000      -0.01150000      -0.10630000
C       -1.53750000      -0.41930000      -0.01380000
O       -2.44020000       0.37790000       0.00730000
C       -1.77920000      -1.92740000       0.05170000
O       -3.14750000      -2.20400000      -0.00960000
C       -3.42000000      -3.59040000       0.07780000
C       -4.85610000      -3.82080000       0.00540000
C       -6.03430000      -4.04350000      -0.05180000
H        1.20310000       1.74380000      -0.06110000
H       -0.42820000       2.04510000      -0.69520000
H       -0.18800000       1.83360000       1.03550000
H        0.30270000      -0.35910000      -1.07990000
H        0.50040000      -0.58030000       0.63910000
H       -1.22330000      -2.41420000      -0.77070000
H       -1.32720000      -2.30310000       0.98910000
H       -2.91510000      -4.13570000      -0.73840000
H       -3.02460000      -4.00210000       1.02270000
H       -7.07870000      -4.22890000      -0.10290000
