19
Properties=species:S:1:pos:R:3 gdb_100461=T pbc="F F F"
C        0.15530000       1.41770000      -0.25780000
C        0.00670000      -0.05950000       0.13380000
O        0.60490000      -0.33430000       1.39780000
C       -1.39680000      -0.48690000       0.09060000
C       -2.55770000      -0.81260000       0.07050000
C       -3.94830000      -1.25190000       0.10470000
O       -4.09640000      -2.63820000      -0.23370000
C       -4.59780000      -1.00410000       1.48030000
O       -5.91500000      -1.49740000       1.48970000
H        1.21030000       1.69920000      -0.21180000
H       -0.21960000       1.59290000      -1.27010000
H       -0.41050000       2.05520000       0.42940000
H        0.57940000      -0.66990000      -0.57480000
H        0.07440000       0.10710000       2.07070000
H       -4.53770000      -0.71700000      -0.64910000
H       -3.37950000      -3.11720000       0.19820000
H       -3.97050000      -1.47740000       2.25500000
H       -4.63780000       0.06930000       1.69000000
H       -5.86570000      -2.36870000       1.07410000
