19
Properties=species:S:1:pos:R:3 gdb_106749=T pbc="F F F"
C        0.33130000       1.44600000       0.25070000
C       -0.21170000       0.04410000      -0.06490000
C        0.35490000      -0.50330000      -1.33440000
O        1.74740000      -0.92520000      -1.36040000
C        0.76530000      -1.86150000      -1.80950000
C        0.66940000      -3.19480000      -1.14390000
C        0.53720000      -1.51230000      -3.29290000
C        0.06730000      -0.11660000      -2.78430000
O       -0.47550000       0.81510000      -3.30160000
H        1.41900000       1.42150000       0.36320000
H        0.08740000       2.14430000      -0.55490000
H       -0.10130000       1.82890000       1.17920000
H        0.01940000      -0.64740000       0.75340000
H       -1.30380000       0.07920000      -0.16010000
H        0.73760000      -3.08960000      -0.05810000
H       -0.27690000      -3.68450000      -1.39410000
H        1.48430000      -3.84860000      -1.47380000
H        1.42720000      -1.54550000      -3.92480000
H       -0.28870000      -2.04210000      -3.77830000
