17
Properties=species:S:1:pos:R:3 gdb_10192=T pbc="F F F"
C        0.06870000       1.47880000       0.17290000
C       -0.10520000      -0.02840000       0.19940000
O        0.87740000      -0.57230000       1.08030000
C        0.86540000      -1.97630000       1.20570000
C        2.08410000      -2.33200000       2.07100000
O        2.02890000      -1.70110000       3.32420000
C       -0.39390000      -2.45730000       1.81830000
N       -1.38960000      -2.83140000       2.26930000
H        1.06890000       1.74830000      -0.17770000
H       -0.66780000       1.92860000      -0.49890000
H       -0.07330000       1.89980000       1.17210000
H       -1.11050000      -0.30210000       0.54830000
H        0.02900000      -0.45880000      -0.80520000
H        0.96180000      -2.46130000       0.22040000
H        2.11310000      -3.41120000       2.24520000
H        2.97900000      -2.04600000       1.49760000
H        1.87970000      -0.76330000       3.15360000
