21
Properties=species:S:1:pos:R:3 gdb_62807=T pbc="F F F"
C       -0.13580000       1.53140000       0.04390000
C       -0.01720000       0.00450000      -0.00730000
C       -1.43060000      -0.54910000      -0.21690000
C        1.18400000      -0.64440000      -0.79470000
C        2.14800000      -0.12530000       0.31200000
C        0.90980000      -0.70810000       1.07500000
C        1.03210000      -1.91820000       0.08720000
C        0.69090000      -0.74960000       2.49180000
C        0.48410000      -0.76950000       3.67750000
H        0.80880000       2.06070000       0.16590000
H       -0.60070000       1.89940000      -0.87770000
H       -0.78740000       1.82630000       0.87380000
H       -1.86320000      -0.12780000      -1.13140000
H       -1.49060000      -1.63400000      -0.29810000
H       -2.07610000      -0.24550000       0.61480000
H        1.35090000      -0.61320000      -1.87210000
H        3.07350000      -0.69150000       0.43840000
H        2.33800000       0.94270000       0.38810000
H        0.16130000      -2.55480000      -0.05040000
H        1.93480000      -2.52100000       0.20900000
H        0.30720000      -0.79070000       4.72420000
