18
Properties=species:S:1:pos:R:3 gdb_4132=T pbc="F F F"
C        0.95380000       1.05880000      -0.76400000
C        0.05620000       0.10190000      -0.01750000
N        0.62430000      -1.16690000       0.44850000
C        0.13740000      -0.20080000       1.44980000
C        1.11800000       0.38610000       2.40840000
C        2.59850000       0.34710000       2.15510000
N        0.57830000       0.88020000       3.46060000
O        1.53380000       1.43700000       4.32480000
H        1.97110000       1.05240000      -0.37130000
H        1.00240000       0.78510000      -1.82370000
H        0.56350000       2.08010000      -0.69890000
H       -0.95990000       0.06240000      -0.41130000
H       -0.03260000      -1.93410000       0.34270000
H       -0.82040000      -0.39510000       1.92630000
H        2.82930000      -0.36970000       1.36730000
H        2.97290000       1.33630000       1.86740000
H        3.12000000       0.07230000       3.07560000
H        0.99090000       1.71840000       5.06850000
