14
Properties=species:S:1:pos:R:3 gdb_131587=T pbc="F F F"
O       -0.00820000       1.42260000       0.00980000
C       -0.00900000       0.02240000       0.00340000
C       -1.45040000      -0.48270000       0.01280000
O       -2.40130000       0.26380000       0.02330000
C       -1.63110000      -1.94850000       0.00760000
C       -0.73090000      -2.97540000      -0.00390000
O       -1.35500000      -4.15190000      -0.00420000
N       -2.74200000      -3.93310000       0.00750000
C       -2.88370000      -2.63700000       0.01400000
H        0.90560000       1.72190000       0.00280000
H        0.48620000      -0.40130000      -0.88820000
H        0.50050000      -0.40930000       0.88310000
H        0.34780000      -3.01840000      -0.01230000
H       -3.87080000      -2.19860000       0.02340000
