18
Properties=species:S:1:pos:R:3 gdb_52557=T pbc="F F F"
C       -0.53190000       0.47560000       1.06690000
C       -0.01440000      -0.50880000       0.13350000
C        0.41740000      -1.33140000      -0.63680000
C        0.92650000      -2.28350000      -1.59710000
O        0.65220000      -2.22070000      -2.77780000
C        1.87310000      -3.36220000      -1.06680000
N        1.52660000      -3.80650000       0.27210000
C        0.60040000      -4.93240000       0.35840000
C        2.04550000      -5.11000000       0.67120000
H        0.28370000       0.95000000       1.62340000
H       -1.09600000       1.26040000       0.55260000
H       -1.19680000       0.00240000       1.79780000
H        1.89380000      -4.16710000      -1.81960000
H        2.87790000      -2.91790000      -1.03180000
H       -0.13520000      -4.87640000       1.15510000
H        0.23600000      -5.36630000      -0.57150000
H        2.64490000      -5.66500000      -0.04870000
H        2.38370000      -5.18650000       1.70060000
