21
Properties=species:S:1:pos:R:3 gdb_118877=T pbc="F F F"
C        0.00770000       1.61440000       0.02720000
C        0.07780000       0.08540000      -0.02470000
C        0.62750000      -0.52740000       1.26980000
C        0.74290000      -2.04770000       1.24320000
O       -0.51260000      -2.69500000       1.13760000
C        1.83400000      -2.69230000       0.28830000
C        2.48660000      -3.30080000       1.53390000
O        2.83040000      -2.21010000       2.40310000
C        1.48820000      -2.70040000       2.42710000
H        1.00080000       2.04760000       0.18830000
H       -0.39130000       2.02850000      -0.90390000
H       -0.63610000       1.95190000       0.84660000
H       -0.92910000      -0.30730000      -0.22440000
H        0.70330000      -0.22290000      -0.87290000
H        1.62210000      -0.11940000       1.48000000
H       -0.02160000      -0.24790000       2.11010000
H       -0.91790000      -2.43100000       0.30530000
H        1.37370000      -3.43830000      -0.36360000
H        2.47190000      -2.02010000      -0.29130000
H        3.06550000      -4.21120000       1.63410000
H        1.07250000      -3.02570000       3.37390000
