20
Properties=species:S:1:pos:R:3 gdb_106471=T pbc="F F F"
C       -0.20140000       1.53540000       0.02060000
C        0.08370000       0.02940000      -0.04730000
C        0.73260000      -0.50770000       1.20620000
C        0.09410000      -0.45600000       2.64120000
C        1.20600000      -1.49270000       2.93270000
C        0.95580000      -2.04510000       1.50030000
N        2.40200000      -0.63410000       2.76210000
C        2.16770000      -0.03410000       1.52500000
O        2.92350000       0.63340000       0.86200000
H        0.72670000       2.09470000       0.16290000
H       -0.67130000       1.88400000      -0.90380000
H       -0.87770000       1.77570000       0.84820000
H       -0.84670000      -0.52090000      -0.23470000
H        0.74830000      -0.17610000      -0.89530000
H        0.13300000       0.48360000       3.19600000
H       -0.91080000      -0.88450000       2.65730000
H        1.23230000      -2.10800000       3.82990000
H        0.03340000      -2.62320000       1.39960000
H        1.78580000      -2.55110000       0.99900000
H        3.32870000      -0.98040000       2.96670000
