18
Properties=species:S:1:pos:R:3 gdb_83844=T pbc="F F F"
C       -0.32050000       1.48040000      -0.03370000
C       -0.00090000       0.00310000      -0.02720000
C        0.69670000      -0.67160000      -1.16870000
N        1.34890000      -0.54530000       0.14300000
C        2.49260000       0.37600000       0.19340000
C        3.19260000       0.41910000      -1.15270000
O        2.29960000       0.84370000      -2.20030000
C        1.13340000       0.16040000      -2.34140000
O        0.49650000       0.25520000      -3.35360000
H        0.35690000       2.06460000      -0.66020000
H       -1.33400000       1.62790000      -0.41870000
H       -0.28820000       1.88850000       0.98280000
H       -0.74830000      -0.59830000       0.48770000
H        0.39270000      -1.67490000      -1.45500000
H        2.19490000       1.38880000       0.48820000
H        3.19460000       0.01110000       0.95210000
H        4.01390000       1.13860000      -1.15890000
H        3.59580000      -0.56870000      -1.40730000
