19
Properties=species:S:1:pos:R:3 gdb_58783=T pbc="F F F"
C        0.01590000       1.47610000      -0.11460000
C       -0.00460000      -0.04070000       0.10100000
O        0.60120000      -0.40070000       1.34040000
C       -1.39170000      -0.60270000       0.04910000
C       -2.22790000      -1.00530000      -1.13690000
C       -1.97120000      -1.99850000      -0.03110000
O       -1.42180000      -3.23150000      -0.30150000
C       -2.78560000      -1.61440000       1.20130000
O       -2.25200000      -0.25850000       1.15670000
H        1.03570000       1.85270000      -0.00240000
H       -0.35050000       1.73500000      -1.11300000
H       -0.62300000       1.97490000       0.62160000
H        0.59240000      -0.53180000      -0.67660000
H       -0.03010000      -0.14000000       2.02300000
H       -3.20840000      -0.56250000      -1.29280000
H       -1.66250000      -1.22390000      -2.03790000
H       -0.77350000      -3.43000000       0.38460000
H       -3.87860000      -1.63510000       1.12880000
H       -2.46190000      -2.12740000       2.11540000
