16
Properties=species:S:1:pos:R:3 gdb_124714=T pbc="F F F"
C        0.07440000       1.37410000       0.06430000
C        0.02410000      -0.11930000      -0.04330000
N        0.08270000      -0.89130000       1.02790000
N       -0.08160000      -0.69200000      -1.23330000
H       -0.12720000      -0.11990000      -2.06310000
C       -0.13790000      -2.08040000      -1.45610000
N       -0.24460000      -2.59840000      -2.67700000
C       -0.25780000      -3.91440000      -2.35080000
N       -0.16680000      -4.17820000      -1.04430000
N       -0.08700000      -2.95850000      -0.44740000
H        1.00670000       1.68770000       0.54440000
H        0.01440000       1.84820000      -0.91650000
H       -0.75700000       1.73760000       0.67640000
H        0.16190000      -0.47570000       1.94040000
H        0.03820000      -1.94080000       0.83560000
H       -0.33590000      -4.69910000      -3.09030000
