21
Properties=species:S:1:pos:R:3 gdb_31713=T pbc="F F F"
C        0.07820000       1.49030000      -0.36070000
C        0.02860000      -0.00680000      -0.01700000
C       -1.36480000      -0.55500000      -0.00330000
C       -1.92030000      -1.51130000      -0.81270000
N       -3.23010000      -1.63490000      -0.39340000
C       -3.41790000      -0.75950000       0.63860000
C       -4.70590000      -0.64190000       1.39110000
C       -4.73950000      -1.51060000       2.66150000
N       -2.30990000      -0.09700000       0.89420000
H        1.10310000       1.87180000      -0.31110000
H       -0.30590000       1.67350000      -1.36950000
H       -0.53760000       2.05970000       0.34050000
H        0.63270000      -0.57710000      -0.73210000
H        0.48340000      -0.16030000       0.96980000
H       -1.52380000      -2.09420000      -1.62770000
H       -3.92190000      -2.25300000      -0.78240000
H       -4.83770000       0.40900000       1.66470000
H       -5.54360000      -0.90850000       0.73500000
H       -5.68330000      -1.37780000       3.19940000
H       -4.63380000      -2.57280000       2.41830000
H       -3.91880000      -1.23590000       3.32940000
