18
Properties=species:S:1:pos:R:3 gdb_76951=T pbc="F F F"
C        0.13250000       1.40750000      -0.26130000
C       -0.09120000      -0.06860000      -0.03260000
N        0.98490000      -1.02310000      -0.23560000
C        2.21530000      -0.81390000      -0.82290000
O        2.39690000      -0.19330000      -1.84280000
C        0.56020000      -0.78940000       1.11310000
C        1.34180000      -0.21690000       2.29880000
O        0.72000000      -1.17610000       3.17880000
C        0.01650000      -1.82360000       2.09490000
H        1.07780000       1.74350000       0.17380000
H        0.16420000       1.63050000      -1.33050000
H       -0.68100000       1.98230000       0.19250000
H       -1.06370000      -0.44210000      -0.35340000
H        3.02250000      -1.35090000      -0.28730000
H        2.43150000      -0.34030000       2.25700000
H        1.10730000       0.81780000       2.57720000
H       -1.06900000      -1.82820000       2.24910000
H        0.36770000      -2.84870000       1.92290000
