19
Properties=species:S:1:pos:R:3 gdb_83775=T pbc="F F F"
C       -0.08160000       1.65160000      -0.04220000
C        0.08310000       0.14150000       0.06100000
C        1.11980000      -0.62240000      -0.81600000
O        2.35380000       0.06860000      -0.90740000
C        2.89030000       0.42230000       0.37050000
C        2.27100000      -0.47880000       1.42220000
O        2.46620000      -1.83850000       0.92700000
C        1.17520000      -1.73110000       0.32710000
C        0.70780000      -0.60180000       1.26600000
H        0.86950000       2.18490000      -0.01110000
H       -0.57110000       1.91780000      -0.98530000
H       -0.70950000       2.02930000       0.77230000
H       -0.89580000      -0.33060000      -0.10020000
H        0.84930000      -0.91120000      -1.83250000
H        3.97150000       0.25190000       0.32620000
H        2.71760000       1.48390000       0.59550000
H        2.68180000      -0.33360000       2.42430000
H        0.67190000      -2.68310000       0.15080000
H        0.15370000      -0.76170000       2.19140000
