20
Properties=species:S:1:pos:R:3 gdb_120053=T pbc="F F F"
C       -0.06720000       1.31420000      -0.03970000
O       -0.11240000      -0.08800000       0.06430000
C        0.74900000      -0.59460000       1.06340000
C        0.62630000      -2.10650000       1.07690000
C        1.25830000      -2.74370000       2.31620000
C       -0.02050000      -2.70980000       3.06520000
C       -0.72550000      -2.61890000       1.65360000
C       -0.53510000      -4.14190000       1.61250000
N        0.54170000      -4.02590000       2.65360000
H        0.94180000       1.67370000      -0.29770000
H       -0.75880000       1.60680000      -0.83360000
H       -0.37420000       1.80520000       0.89780000
H        1.79120000      -0.29400000       0.85710000
H        0.48260000      -0.17970000       2.05120000
H        0.90870000      -2.50640000       0.09570000
H        2.27390000      -2.66070000       2.68180000
H       -0.28650000      -2.45090000       4.08130000
H       -1.65450000      -2.11900000       1.39000000
H       -1.36700000      -4.70230000       2.04620000
H       -0.22820000      -4.60230000       0.66550000
