18
Properties=species:S:1:pos:R:3 gdb_60654=T pbc="F F F"
N       -0.00760000       1.26620000      -0.16490000
C        0.03580000      -0.08280000      -0.04110000
O        1.07500000      -0.71350000       0.06300000
C       -1.31210000      -0.82140000       0.01530000
O       -1.06950000      -2.19410000      -0.14370000
C       -2.02250000      -0.56570000       1.34990000
C       -2.82000000       0.74460000       1.53960000
O       -4.04900000       0.02710000       1.73530000
C       -3.39940000      -1.24550000       1.51010000
H        0.86180000       1.77120000      -0.23000000
H       -0.86310000       1.75100000      -0.37310000
H       -1.95720000      -0.47040000      -0.80610000
H       -0.10560000      -2.28570000      -0.04490000
H       -1.33250000      -0.78510000       2.16820000
H       -2.54980000       1.35580000       2.40870000
H       -2.87310000       1.40050000       0.65600000
H       -3.77310000      -1.74870000       0.61040000
H       -3.50860000      -1.91840000       2.36730000
