15
Properties=species:S:1:pos:R:3 gdb_29824=T pbc="F F F"
C       -0.03810000       1.44600000      -0.01150000
N       -0.04240000      -0.01290000       0.01390000
C       -1.19410000      -0.71810000      -0.11700000
C       -1.16690000      -2.08240000      -0.08940000
O       -2.32880000      -2.79060000      -0.22150000
C        0.10850000      -2.67670000       0.07990000
N        1.22800000      -2.02090000       0.20770000
C        1.22540000      -0.63800000       0.18280000
O        2.21490000       0.05930000       0.29360000
H        0.59710000       1.79950000      -0.82690000
H       -1.05880000       1.80710000      -0.14460000
H        0.37990000       1.83050000       0.92160000
H       -2.11430000      -0.16030000      -0.24150000
H       -2.12920000      -3.73130000      -0.18000000
H        0.17570000      -3.76890000       0.10770000
