12
Properties=species:S:1:pos:R:3 gdb_22=T pbc="F F F"
C       -0.03320000       1.54780000      -0.00440000
C       -0.01110000       0.01860000       0.01680000
C        0.70940000      -0.53600000       1.23980000
O       -1.33220000      -0.51710000       0.05240000
H        0.98220000       1.95720000      -0.03180000
H       -0.56390000       1.92090000      -0.88850000
H       -0.54080000       1.93340000       0.88580000
H        0.51040000      -0.33770000      -0.88820000
H        0.22240000      -0.18790000       2.15650000
H        0.68240000      -1.62890000       1.23310000
H        1.75430000      -0.21250000       1.25520000
H       -1.81820000      -0.15580000      -0.69550000
