22
Properties=species:S:1:pos:R:3 gdb_6701=T pbc="F F F"
C       -0.05080000       1.56640000      -0.14770000
C        0.02770000       0.03650000      -0.04480000
C        0.74360000      -0.54860000      -1.27000000
C        0.71170000      -0.43410000       1.25230000
C       -0.03040000      -0.07260000       2.54310000
C        0.65880000      -0.65570000       3.79430000
C       -0.03050000      -0.32310000       5.03530000
C       -0.61860000      -0.03500000       6.04340000
H        0.95230000       2.01000000      -0.12980000
H       -0.52870000       1.86900000      -1.08530000
H       -0.62580000       2.00800000       0.67130000
H       -1.00030000      -0.35500000      -0.03780000
H        1.78060000      -0.19550000      -1.32320000
H        0.76710000      -1.64290000      -1.23590000
H        0.24590000      -0.25200000      -2.19920000
H        0.82960000      -1.52570000       1.20840000
H        1.73100000      -0.02190000       1.28840000
H       -0.10040000       1.01370000       2.65940000
H       -1.06030000      -0.44690000       2.49970000
H        0.72870000      -1.74730000       3.69730000
H        1.69360000      -0.29120000       3.84320000
H       -1.12950000       0.21320000       6.94020000
