19
Properties=species:S:1:pos:R:3 gdb_39325=T pbc="F F F"
C        0.17670000       1.58760000       0.16380000
O        1.49290000       1.49000000      -0.42180000
C        1.35730000       0.06360000      -0.59810000
C        2.45150000      -0.75460000       0.03510000
O        2.65870000      -0.60910000       1.44340000
C        2.08090000      -1.83000000       0.97290000
C        0.62670000      -2.05330000       1.34470000
C       -0.13190000      -0.71870000       1.41000000
C       -0.03150000       0.05810000       0.09110000
H        0.21200000       2.01180000       1.17480000
H       -0.50080000       2.19000000      -0.45450000
H        1.32150000      -0.19510000      -1.66720000
H        3.37520000      -0.84350000      -0.53710000
H        2.73810000      -2.69690000       1.04580000
H        0.17460000      -2.73470000       0.61110000
H        0.57320000      -2.56050000       2.31500000
H       -1.18130000      -0.89740000       1.66550000
H        0.30170000      -0.12470000       2.21910000
H       -0.83030000      -0.24460000      -0.59030000
