19
Properties=species:S:1:pos:R:3 gdb_17287=T pbc="F F F"
C       -0.02300000       1.54120000      -0.01110000
C        0.00810000       0.03000000       0.01330000
C       -1.31350000      -0.75740000       0.28250000
C       -0.61740000      -1.54070000       1.43990000
C        0.70710000      -0.77030000       1.16730000
C        1.68200000      -1.36020000       0.12450000
N        0.87470000      -2.09160000      -0.88340000
C        1.00900000      -0.61970000      -0.98010000
H        0.99030000       1.96050000      -0.02020000
H       -0.54280000       1.91200000      -0.90360000
H       -0.54250000       1.94140000       0.86630000
H       -2.13000000      -0.11040000       0.61590000
H       -1.66090000      -1.37330000      -0.54820000
H       -1.03760000      -1.33200000       2.42680000
H       -0.55840000      -2.62030000       1.29620000
H        1.18710000      -0.24600000       1.99510000
H        2.72640000      -1.61180000       0.26740000
H        1.52820000      -2.49670000      -1.55260000
H        1.41550000      -0.16490000      -1.87740000
