18
Properties=species:S:1:pos:R:3 gdb_78813=T pbc="F F F"
C       -0.06730000       1.57590000      -0.00630000
C        0.08470000       0.06720000       0.06030000
N        1.14020000      -0.57790000      -0.81680000
C        2.40030000      -0.62670000       0.00300000
C        1.33790000      -1.65660000       0.17780000
C        0.71300000      -0.64080000       1.26240000
O        0.01700000      -0.88940000       2.41590000
C        2.13680000      -0.03410000       1.37990000
O        2.85100000      -0.65260000       2.44120000
H        0.87420000       2.10100000       0.17510000
H       -0.42830000       1.87320000      -0.99550000
H       -0.79680000       1.91370000       0.73710000
H       -0.85850000      -0.41860000      -0.21140000
H        3.33320000      -0.67560000      -0.54440000
H        1.26920000      -2.71210000      -0.05170000
H        0.68080000      -0.99310000       3.11460000
H        2.23270000       1.04130000       1.54800000
H        3.03150000      -1.56420000       2.17890000
