16
Properties=species:S:1:pos:R:3 gdb_11710=T pbc="F F F"
C       -0.08970000       1.52470000      -0.02130000
C        0.12520000       0.02870000       0.06200000
O        1.20460000      -0.45380000      -0.79820000
C        1.77340000      -1.19260000       0.29370000
C        2.23770000      -0.24170000       1.36340000
C        0.77520000      -0.60840000       1.29030000
C        2.25990000      -2.50910000       0.07600000
C        2.68110000      -3.62040000      -0.11130000
H        0.79790000       2.07710000       0.29780000
H       -0.32230000       1.81420000      -1.05090000
H       -0.93200000       1.81970000       0.61350000
H       -0.79540000      -0.50630000      -0.20440000
H        2.77390000      -0.69800000       2.18870000
H        2.59320000       0.73910000       1.06210000
H        0.25330000      -1.10120000       2.09890000
H        3.05090000      -4.60160000      -0.27890000
