18
Properties=species:S:1:pos:R:3 gdb_12192=T pbc="F F F"
C        0.02070000       1.56990000       0.08040000
C        0.03520000       0.06050000      -0.05970000
C        0.77700000      -0.58220000      -1.27600000
C        1.28540000      -1.63240000      -0.24770000
N        0.96190000      -0.67810000       0.82410000
C        0.46030000      -1.19650000       2.07840000
C       -0.00930000      -1.03620000      -2.40550000
N       -0.64640000      -1.39930000      -3.29960000
H        1.03520000       1.97310000       0.01060000
H       -0.59780000       2.02400000      -0.70080000
H       -0.39670000       1.86410000       1.04910000
H       -0.99110000      -0.34190000      -0.00570000
H        1.58870000       0.06290000      -1.62120000
H        0.64860000      -2.53130000      -0.24700000
H        2.33540000      -1.93200000      -0.31110000
H        1.24540000      -1.77010000       2.58160000
H        0.17980000      -0.36820000       2.73690000
H       -0.42080000      -1.85350000       1.95430000
