18
Properties=species:S:1:pos:R:3 gdb_50494=T pbc="F F F"
O       -0.10820000      -0.07880000      -0.12990000
C        0.05920000       1.09810000       0.04770000
C        1.39160000       1.81130000       0.00330000
C        1.45680000       2.82560000      -1.16690000
C        2.47410000       3.87040000      -0.69500000
C        2.08540000       4.07460000       0.78880000
C        1.64810000       2.65870000       1.28520000
C        3.14040000       4.67300000       1.59960000
N        3.98330000       5.13800000       2.23950000
H       -0.80280000       1.77860000       0.25760000
H        2.16890000       1.05300000      -0.11730000
H        1.72870000       2.34950000      -2.11130000
H        0.47630000       3.29990000      -1.30840000
H        3.49150000       3.47080000      -0.75980000
H        2.44340000       4.80200000      -1.26470000
H        1.22110000       4.74750000       0.82920000
H        0.75440000       2.73740000       1.91210000
H        2.42510000       2.19890000       1.89800000
