17
Properties=species:S:1:pos:R:3 gdb_123452=T pbc="F F F"
C       -0.01870000       1.42320000       0.59010000
C       -0.13390000      -0.03170000       0.18170000
C       -1.29180000      -0.54430000      -0.55930000
O       -0.05430000      -0.28150000      -1.22910000
C        1.35450000       1.97170000       0.34390000
C        2.23520000       2.68240000       1.13670000
C        3.35430000       2.91840000       0.30970000
N        3.19410000       2.39730000      -0.90330000
N        1.97220000       1.83410000      -0.85880000
H       -0.76690000       2.00310000       0.03460000
H       -0.26060000       1.52540000       1.65280000
H        0.44740000      -0.73330000       0.78040000
H       -1.56310000      -1.59580000      -0.48620000
H       -2.10930000       0.13120000      -0.80730000
H        2.08390000       2.98540000       2.16050000
H        4.26690000       3.44450000       0.54900000
H        1.61700000       1.32640000      -1.65370000
