16
Properties=species:S:1:pos:R:3 gdb_90651=T pbc="F F F"
O        0.01490000       1.33030000      -0.03060000
C       -0.01400000      -0.07900000      -0.02380000
C        0.27870000      -0.72400000       1.37510000
C       -1.18390000      -1.17660000       1.45450000
C       -1.47050000      -0.54100000       0.08780000
C       -1.50980000      -2.03440000       0.24530000
O       -0.55070000      -2.80790000      -0.41450000
C       -2.83500000      -2.62560000       0.25920000
N       -3.87410000      -3.13260000       0.28020000
H        0.93490000       1.60980000      -0.07780000
H        0.54650000      -0.50070000      -0.86570000
H        1.03930000      -1.50700000       1.42740000
H        0.49700000       0.06190000       2.10030000
H       -1.80250000      -1.21610000       2.34260000
H       -2.32380000       0.02270000      -0.26710000
H       -0.41130000      -3.61730000       0.09130000
