20
Properties=species:S:1:pos:R:3 gdb_112920=T pbc="F F F"
C        0.01860000       1.51060000       0.13930000
C        0.00050000       0.00350000      -0.04690000
C        0.73740000      -0.48810000      -1.29070000
C        0.77530000      -2.01770000      -1.29190000
C        1.74110000      -2.60350000      -2.33140000
O        1.77270000      -4.00890000      -2.25480000
N        1.17780000      -2.56120000       0.00900000
C        1.08580000      -1.82310000       1.03190000
O        0.59810000      -0.56980000       1.14120000
H        1.04720000       1.88190000       0.17490000
H       -0.49930000       1.99860000      -0.69170000
H       -0.48110000       1.78860000       1.07110000
H       -1.03830000      -0.35360000      -0.07940000
H        0.24220000      -0.10240000      -2.18800000
H        1.75980000      -0.08900000      -1.28140000
H       -0.22310000      -2.41630000      -1.52080000
H        1.41630000      -2.33450000      -3.34300000
H        2.74110000      -2.16380000      -2.17130000
H        1.83570000      -4.20200000      -1.30840000
H        1.43120000      -2.17240000       2.00370000
