12
Properties=species:S:1:pos:R:3 gdb_2745=T pbc="F F F"
N        0.13350000       1.24620000      -0.05370000
C        0.02670000       0.00560000       0.07050000
O        0.90760000      -0.95380000       0.50740000
C       -0.07710000      -2.02400000       0.30510000
C       -1.10510000      -0.98980000      -0.17610000
C       -2.32430000      -0.76450000       0.69380000
O       -2.62230000      -1.46300000       1.62680000
H        1.05790000       1.57740000       0.22660000
H        0.27670000      -2.74080000      -0.43750000
H       -0.32810000      -2.51420000       1.24630000
H       -1.40440000      -1.04370000      -1.22670000
H       -2.92620000       0.12330000       0.40980000
