20
Properties=species:S:1:pos:R:3 gdb_79042=T pbc="F F F"
C       -0.19410000       1.62640000      -0.12290000
C       -0.04080000       0.11950000       0.01220000
C        1.16760000      -0.59650000      -0.69520000
C        2.14820000      -0.20810000       0.44100000
N        2.59080000      -1.60100000       0.81940000
C        2.44020000      -1.59300000       2.31470000
C        1.11410000      -0.76390000       2.62870000
C        0.80160000      -0.47210000       1.17950000
C        1.16350000      -1.73640000       0.34930000
H        0.75720000       2.14600000       0.03250000
H       -0.56100000       1.89330000      -1.12000000
H       -0.91120000       2.01620000       0.60770000
H       -1.00200000      -0.38560000      -0.14340000
H        1.37660000      -0.66980000      -1.76270000
H        2.80440000       0.65940000       0.52780000
H        2.37210000      -2.62300000       2.67570000
H        3.32500000      -1.13300000       2.76360000
H        0.35810000      -1.36860000       3.13710000
H        1.31390000       0.12480000       3.23360000
H        0.62720000      -2.68750000       0.32610000
