17
Properties=species:S:1:pos:R:3 gdb_6343=T pbc="F F F"
C       -0.08380000       1.47080000       0.22640000
C        0.13930000      -0.01830000      -0.02320000
C        0.73170000      -0.29470000      -1.40550000
O        0.99170000       0.56780000      -2.20340000
N        0.93730000      -1.66430000      -1.63730000
C        1.46100000      -2.28100000      -2.78500000
C        1.52790000      -3.79640000      -2.65240000
O        1.81800000      -1.68270000      -3.76550000
H        0.85660000       2.02190000       0.15320000
H       -0.76560000       1.89110000      -0.51650000
H       -0.50760000       1.63320000       1.22120000
H        0.81220000      -0.44540000       0.73280000
H       -0.80310000      -0.57570000       0.06660000
H        0.67590000      -2.28180000      -0.88320000
H        0.53140000      -4.21890000      -2.48320000
H        1.94160000      -4.20700000      -3.57240000
H        2.16200000      -4.08820000      -1.80820000
