16
Properties=species:S:1:pos:R:3 gdb_55331=T pbc="F F F"
N        0.06900000       1.30700000       0.19140000
C       -0.08200000       0.10840000      -0.42560000
O        0.54950000      -0.22940000      -1.40900000
C       -1.11930000      -0.88180000       0.11280000
N       -0.50850000      -2.06290000       0.75670000
C       -1.67570000      -2.23050000       1.64040000
C       -2.05690000      -0.74020000       1.36860000
C       -1.63540000       0.18170000       2.40760000
N       -1.30380000       0.93800000       3.21850000
H        0.82850000       1.88430000      -0.13600000
H       -0.29690000       1.49270000       1.11210000
H       -1.75580000      -1.13130000      -0.74910000
H       -0.28510000      -2.83120000       0.13480000
H       -2.46000000      -2.89940000       1.25950000
H       -1.43680000      -2.50020000       2.67210000
H       -3.10520000      -0.55190000       1.13280000
