15
Properties=species:S:1:pos:R:3 gdb_47787=T pbc="F F F"
O        0.02260000       0.02780000       0.35610000
C       -0.00940000       1.17490000       0.01810000
O       -1.18780000       1.77450000      -0.26910000
C       -1.23030000       3.00100000      -1.02160000
O       -0.17930000       3.86070000      -0.76430000
C        1.05940000       3.22710000      -1.03230000
C        1.25140000       2.06610000      -0.03790000
C        1.54030000       2.55260000       1.30760000
C        1.77770000       2.96720000       2.40930000
H       -1.26520000       2.72020000      -2.08650000
H       -2.15440000       3.49900000      -0.72630000
H        1.07750000       2.84420000      -2.06490000
H        1.84170000       3.97830000      -0.91690000
H        2.06500000       1.41400000      -0.37350000
H        1.98680000       3.32380000       3.38770000
