22
Properties=species:S:1:pos:R:3 gdb_106764=T pbc="F F F"
C       -0.32240000       1.50000000      -0.33570000
C       -0.05690000       0.00190000      -0.27330000
C        1.24170000      -0.56390000      -0.95910000
C        1.66250000      -1.15410000       0.39470000
C        2.44420000      -2.40870000       0.63720000
N        1.77980000       0.02620000       1.30470000
C        0.45130000      -0.59110000       1.05640000
C       -0.40610000      -1.09870000       2.18420000
O        0.35520000      -1.64880000       3.25690000
H        0.53410000       2.05170000       0.06060000
H       -0.49550000       1.82470000      -1.36750000
H       -1.20840000       1.77460000       0.24870000
H       -0.93200000      -0.55800000      -0.62170000
H        1.02480000      -1.31980000      -1.71810000
H        1.92860000       0.18130000      -1.37030000
H        3.50420000      -2.26870000       0.39220000
H        2.36700000      -2.71580000       1.68420000
H        2.06830000      -3.22920000       0.01580000
H        2.09350000      -0.35730000       2.19820000
H       -1.06700000      -0.29480000       2.54320000
H       -1.05590000      -1.90330000       1.81910000
H        0.56810000      -0.93560000       3.86530000
