20
Properties=species:S:1:pos:R:3 gdb_55634=T pbc="F F F"
C       -0.00170000       1.53970000      -0.13480000
C        0.03360000       0.03180000       0.07690000
O        0.09640000      -0.45530000       1.19400000
N       -0.00990000      -0.70910000      -1.06700000
C        0.01260000      -2.18870000      -1.12260000
C        1.32440000      -2.73220000      -0.51080000
C       -1.21390000      -2.77550000      -0.38650000
C       -0.05080000      -2.54960000      -2.54450000
C       -0.10280000      -2.84220000      -3.70890000
H        0.89740000       1.97490000       0.30950000
H       -0.06270000       1.84170000      -1.18340000
H       -0.86120000       1.94700000       0.40400000
H       -0.06110000      -0.23250000      -1.95140000
H        1.38360000      -2.43320000       0.53620000
H        1.34300000      -3.82280000      -0.58120000
H        2.18780000      -2.33450000      -1.04970000
H       -2.13890000      -2.40820000      -0.83790000
H       -1.20220000      -3.86620000      -0.45660000
H       -1.18080000      -2.47700000       0.66180000
H       -0.14850000      -3.11140000      -4.73540000
