15
Properties=species:S:1:pos:R:3 gdb_123803=T pbc="F F F"
C       -0.32810000       1.18040000      -0.16120000
C        1.12230000       1.11180000       0.24420000
C        0.35210000      -0.15460000      -0.00790000
N        0.01880000      -0.95900000       1.13190000
C       -1.09130000      -1.74100000       1.13540000
N       -2.08770000      -1.69640000       0.28680000
O       -2.95170000      -2.65200000       0.77070000
N       -2.41210000      -3.23040000       1.88920000
N       -1.29580000      -2.69640000       2.12280000
H       -1.04970000       1.45400000       0.59860000
H       -0.57680000       1.50250000      -1.16520000
H        1.88260000       1.39010000      -0.47590000
H        1.36430000       1.34750000       1.27450000
H        0.56780000      -0.70590000      -0.92140000
H        0.77740000      -1.31670000       1.69310000
