21
Properties=species:S:1:pos:R:3 gdb_117188=T pbc="F F F"
C        0.10270000       1.49590000      -0.25960000
C        0.05910000      -0.01330000      -0.11500000
C        1.38450000      -0.76740000      -0.03720000
C        0.55520000      -0.62560000       1.19280000
C       -1.04880000      -0.78940000      -0.77240000
O       -1.11140000      -2.00080000      -0.67390000
C       -2.08990000      -0.01980000      -1.56550000
C       -3.15310000      -0.91900000      -2.17780000
O       -4.05390000      -0.07810000      -2.88580000
H        0.96690000       1.90060000       0.27530000
H        0.19290000       1.80650000      -1.30600000
H       -0.79060000       1.97490000       0.15550000
H        1.40680000      -1.74090000      -0.51200000
H        2.28700000      -0.17360000      -0.13350000
H        0.87290000       0.06810000       1.96360000
H        0.02440000      -1.50450000       1.53840000
H       -2.56350000       0.72840000      -0.91710000
H       -1.59260000       0.55880000      -2.35480000
H       -2.67660000      -1.65560000      -2.83960000
H       -3.66060000      -1.48370000      -1.38340000
H       -4.73420000      -0.63430000      -3.27580000
