20
Properties=species:S:1:pos:R:3 gdb_77117=T pbc="F F F"
C       -0.35940000       1.36860000       0.01310000
C        0.01680000      -0.10610000      -0.01170000
N        1.22810000      -0.43740000      -0.79060000
C        1.95470000      -1.04590000       0.32880000
C        0.75140000      -0.69190000       1.21630000
C        0.77880000      -0.14710000       2.61080000
C        0.16740000      -1.50250000       2.32890000
C        1.42780000      -0.62040000      -2.11530000
O        2.40640000      -1.15340000      -2.59820000
H        0.49120000       1.98280000       0.32150000
H       -0.68820000       1.70380000      -0.97560000
H       -1.18510000       1.53920000       0.71240000
H       -0.84830000      -0.71050000      -0.31760000
H        2.14740000      -2.11490000       0.18410000
H        2.89860000      -0.54450000       0.56900000
H        1.73530000      -0.11080000       3.12240000
H        0.11150000       0.67220000       2.85780000
H       -0.91310000      -1.59430000       2.38090000
H        0.70530000      -2.38770000       2.65280000
H        0.59310000      -0.21140000      -2.72210000
