21
Properties=species:S:1:pos:R:3 gdb_39240=T pbc="F F F"
C       -0.05640000       1.52500000      -0.02830000
C        1.27110000       0.80740000      -0.00510000
C        2.23850000       0.87100000       1.17360000
O        1.77640000       0.30480000       2.39420000
C        1.73550000      -1.09210000       2.34570000
C        0.75010000      -1.77520000       3.24220000
C        0.50850000      -1.72560000       1.74400000
C       -0.51660000      -0.74760000       1.20090000
C       -0.02290000       0.01540000      -0.02430000
H       -0.38000000       2.00090000       0.89320000
H       -0.34500000       2.05620000      -0.92910000
H        1.80430000       0.81650000      -0.95340000
H        3.17990000       0.37900000       0.88050000
H        2.47880000       1.91370000       1.41050000
H        2.70960000      -1.55820000       2.18970000
H        1.04430000      -2.71300000       3.70020000
H        0.13120000      -1.14010000       3.86720000
H        0.64580000      -2.64570000       1.18260000
H       -1.44970000      -1.26750000       0.95480000
H       -0.76400000      -0.03290000       1.99010000
H       -0.23630000      -0.47110000      -0.97270000
