18
Properties=species:S:1:pos:R:3 gdb_11917=T pbc="F F F"
O       -0.00800000       1.39580000      -0.10480000
C        0.00570000      -0.01430000       0.02050000
C        0.60840000      -0.54670000       1.33540000
C        0.04050000      -1.97200000       1.42760000
C       -1.36930000      -1.84510000       0.83950000
C       -2.23480000      -3.00340000       0.59690000
O       -2.47460000      -2.13190000       1.70510000
C       -1.43760000      -0.53910000       0.04610000
H        0.90360000       1.70150000      -0.14380000
H        0.54580000      -0.46810000      -0.82760000
H        1.70200000      -0.50970000       1.35430000
H        0.23360000       0.07430000       2.15740000
H        0.63830000      -2.65940000       0.81660000
H        0.00590000      -2.37430000       2.44250000
H       -2.97980000      -2.96720000      -0.19800000
H       -1.88670000      -4.00420000       0.85510000
H       -2.05470000       0.17990000       0.59540000
H       -1.86860000      -0.65600000      -0.95090000
