18
Properties=species:S:1:pos:R:3 gdb_9248=T pbc="F F F"
C       -0.02920000       1.51550000       0.18040000
C        0.08930000      -0.00670000       0.07170000
C        0.70600000      -0.49130000      -1.26720000
C        2.17320000      -0.04810000      -1.45080000
C        0.60420000      -1.94450000      -1.36000000
C        0.54190000      -3.15130000      -1.39900000
C        0.43410000      -4.58330000      -1.48600000
O        1.04410000      -5.36450000      -0.79120000
H        0.94780000       2.00730000       0.17600000
H       -0.61670000       1.92870000      -0.64730000
H       -0.53050000       1.79250000       1.11250000
H        0.69440000      -0.40100000       0.89640000
H       -0.90360000      -0.45730000       0.17480000
H        0.11240000      -0.05660000      -2.08420000
H        2.79470000      -0.43060000      -0.63570000
H        2.57830000      -0.42640000      -2.39270000
H        2.24600000       1.04210000      -1.46320000
H       -0.27400000      -4.93750000      -2.26350000
