22
Properties=species:S:1:pos:R:3 gdb_78396=T pbc="F F F"
C       -0.09890000       1.34410000      -0.06230000
N        0.09040000      -0.10060000       0.02770000
C        1.50560000      -0.49500000      -0.12390000
C        0.87420000      -0.49430000       1.21600000
C        0.99790000      -2.03980000       1.30430000
C        1.65200000      -2.04060000      -0.08320000
C        0.38260000      -2.83200000       0.16680000
C        0.69620000      -4.32070000       0.31560000
C       -0.98830000      -2.60450000      -0.47970000
H        0.74730000       1.93110000       0.33610000
H       -0.24250000       1.62290000      -1.11110000
H       -0.99900000       1.62380000       0.49440000
H        2.22250000       0.19160000      -0.55690000
H        0.99690000       0.19300000       2.04390000
H        1.35380000      -2.52790000       2.20450000
H        2.57270000      -2.52930000      -0.38100000
H        1.67390000      -4.49280000       0.77700000
H       -0.06150000      -4.81150000       0.93660000
H        0.69320000      -4.81250000      -0.66350000
H       -0.91240000      -2.04530000      -1.41260000
H       -1.45310000      -3.57270000      -0.70030000
H       -1.66060000      -2.04770000       0.17360000
