15
Properties=species:S:1:pos:R:3 gdb_65891=T pbc="F F F"
O       -0.00020000       1.45200000      -0.07720000
C        0.00680000       0.04110000      -0.00470000
C        0.14180000      -0.57070000       1.42830000
O       -1.17430000      -1.14280000       1.35480000
C       -1.43840000      -0.51840000       0.08750000
C        0.86930000      -0.55270000      -1.01120000
C        1.62470000      -1.01270000      -1.83850000
C        2.46390000      -1.54370000      -2.76780000
C        3.21160000      -2.01170000      -3.59220000
H        0.89700000       1.75080000      -0.26210000
H        0.91860000      -1.32940000       1.56810000
H        0.22260000       0.20830000       2.19650000
H       -2.17450000       0.29100000       0.15820000
H       -1.73450000      -1.23780000      -0.68160000
H        3.86600000      -2.42850000      -4.31730000
