18
Properties=species:S:1:pos:R:3 gdb_94951=T pbc="F F F"
C        0.16990000       1.45840000      -0.14070000
C       -0.06740000      -0.02790000       0.15430000
C        0.46180000      -0.94620000      -0.97120000
N        1.89850000      -1.04560000      -0.66260000
C        2.01220000      -1.18050000       0.77970000
C        0.75660000      -0.48890000       1.35700000
O        0.29200000      -1.77280000       1.90590000
C        1.39230000      -2.44340000       1.42660000
O        1.63190000      -3.60430000       1.51910000
H        1.22380000       1.64880000      -0.36450000
H       -0.41990000       1.77770000      -1.00500000
H       -0.11890000       2.08290000       0.71100000
H       -1.12980000      -0.20840000       0.34090000
H       -0.05870000      -1.91600000      -0.93840000
H        0.31800000      -0.51960000      -1.96800000
H        2.36210000      -1.79600000      -1.16270000
H        3.00300000      -0.91330000       1.15200000
H        0.86930000       0.24150000       2.15830000
