19
Properties=species:S:1:pos:R:3 gdb_124495=T pbc="F F F"
C        0.03060000       1.54520000      -0.03950000
C        0.01410000       0.00840000       0.06940000
C        0.78040000      -0.46320000       1.31840000
C       -1.38830000      -0.53700000       0.03360000
C       -2.00840000      -1.25590000      -0.95620000
N       -1.60760000      -1.66500000      -2.20910000
O       -3.27230000      -1.54680000      -0.62300000
N       -3.54450000      -1.00460000       0.65250000
C       -2.42430000      -0.42410000       1.00200000
H        1.05760000       1.92570000      -0.05460000
H       -0.47560000       1.88160000      -0.94860000
H       -0.48230000       2.00000000       0.81510000
H        0.54530000      -0.38460000      -0.80940000
H        0.30410000      -0.09190000       2.23260000
H        0.80820000      -1.55510000       1.37870000
H        1.81030000      -0.09160000       1.30780000
H       -0.61260000      -1.80850000      -2.30160000
H       -2.14140000      -2.44350000      -2.57060000
H       -2.38510000       0.07170000       1.96320000
