15
Properties=species:S:1:pos:R:3 gdb_124376=T pbc="F F F"
C       -0.21620000       1.52470000       0.03220000
C        0.14470000       0.06160000      -0.02730000
O        1.25630000      -0.39270000      -0.02550000
O       -0.99270000      -0.68490000      -0.08450000
C       -0.94260000      -2.05880000      -0.14700000
C       -2.09400000      -2.81690000      -0.20930000
N       -1.67200000      -4.10290000      -0.25820000
N       -0.33590000      -4.23010000      -0.23200000
C        0.12820000      -2.98360000      -0.16370000
H        0.69560000       2.11830000       0.07820000
H       -0.80030000       1.80410000      -0.84920000
H       -0.83670000       1.72350000       0.91060000
H       -3.13350000      -2.53500000      -0.22120000
H       -2.23950000      -4.93120000      -0.31000000
H        1.18420000      -2.78840000      -0.12950000
