23
Properties=species:S:1:pos:R:3 gdb_117891=T pbc="F F F"
C        0.03060000       1.24880000      -0.56670000
C       -0.01480000      -0.15420000       0.01590000
O       -1.35140000      -0.61380000      -0.05100000
C       -1.53580000      -1.96480000       0.36510000
C       -1.58770000      -2.08880000       1.89730000
C       -2.76600000      -2.46670000      -0.24770000
C       -3.78520000      -2.89910000      -0.72140000
C       -5.00460000      -3.42160000      -1.32900000
C       -4.76400000      -4.09160000      -2.69400000
H        1.05170000       1.64100000      -0.53790000
H       -0.31360000       1.24310000      -1.60460000
H       -0.61620000       1.92110000       0.00410000
H        0.64620000      -0.83040000      -0.55270000
H        0.35230000      -0.14380000       1.05460000
H       -0.69000000      -2.56850000      -0.00740000
H       -0.65240000      -1.74520000       2.34810000
H       -2.41160000      -1.48710000       2.28890000
H       -1.74540000      -3.13120000       2.18750000
H       -5.47270000      -4.14060000      -0.64420000
H       -5.72760000      -2.60390000      -1.44400000
H       -5.70590000      -4.46390000      -3.10830000
H       -4.33140000      -3.38120000      -3.40350000
H       -4.07330000      -4.93380000      -2.59730000
