18
Properties=species:S:1:pos:R:3 gdb_127442=T pbc="F F F"
C        0.11520000       1.36860000       0.03780000
N        0.08710000      -0.08060000       0.07450000
N        0.09790000      -0.80190000      -1.07480000
C        0.03500000      -2.05400000      -0.64130000
C        0.02550000      -3.22380000      -1.56720000
N       -0.00970000      -2.17290000       0.71760000
C        0.01740000      -0.91660000       1.13550000
C       -0.01140000      -0.47870000       2.56880000
O        1.08440000       0.35970000       2.92360000
H        0.77760000       1.68260000      -0.77030000
H       -0.88440000       1.77480000      -0.14810000
H        0.49590000       1.73380000       0.99170000
H        0.87660000      -3.88300000      -1.36910000
H       -0.88310000      -3.81870000      -1.43050000
H        0.07400000      -2.88410000      -2.60310000
H       -0.90760000       0.11530000       2.77790000
H       -0.05900000      -1.38470000       3.18410000
H        1.89320000      -0.14550000       2.78620000
