20
Properties=species:S:1:pos:R:3 gdb_73807=T pbc="F F F"
C       -0.03180000       1.51740000       0.15670000
C       -0.00020000       0.03330000      -0.00370000
C        0.01100000      -0.68770000      -1.13680000
C        0.00990000      -0.21630000      -2.55510000
N        0.02820000      -2.08030000      -0.84440000
C        0.22190000      -2.27580000       0.60350000
C       -0.03910000      -0.87980000       1.20480000
C       -0.09710000      -3.12790000      -1.70520000
O       -0.24880000      -3.07090000      -2.90950000
H        0.82820000       1.87350000       0.73960000
H       -0.02510000       2.04350000      -0.80040000
H       -0.92910000       1.83600000       0.70480000
H        0.87540000      -0.60270000      -3.10060000
H       -0.87150000      -0.57390000      -3.09210000
H        0.03100000       0.87470000      -2.58770000
H       -0.45480000      -3.04530000       0.98210000
H        1.25050000      -2.60080000       0.80040000
H        0.71360000      -0.61810000       1.95650000
H       -1.01430000      -0.82270000       1.70910000
H       -0.04560000      -4.09140000      -1.15830000
