17
Properties=species:S:1:pos:R:3 gdb_67969=T pbc="F F F"
C       -0.20270000       1.55800000       0.13230000
C        0.03760000       0.06870000       0.08110000
C       -1.17170000      -0.82430000      -0.19830000
O       -0.83580000      -2.10760000       0.30820000
C       -0.09700000      -1.90020000       1.50570000
C        0.78330000      -0.67920000       1.21940000
C        1.84120000      -0.91860000       0.14020000
O        2.89840000      -1.45410000       0.05190000
O        1.14380000      -0.26750000      -0.84280000
H        0.72440000       2.09290000       0.35350000
H       -0.58200000       1.92070000      -0.82840000
H       -0.93910000       1.80130000       0.90410000
H       -2.05650000      -0.41390000       0.31620000
H       -1.38980000      -0.92130000      -1.26420000
H       -0.76720000      -1.69070000       2.35490000
H        0.46880000      -2.81020000       1.71700000
H        1.11350000      -0.12520000       2.09740000
