21
Properties=species:S:1:pos:R:3 gdb_110839=T pbc="F F F"
C       -0.01190000       1.48660000      -0.02350000
C       -0.00060000      -0.00910000      -0.04290000
C        0.08580000      -0.81230000      -1.11070000
C        0.13400000      -2.25530000      -0.74160000
C        1.32390000      -2.73530000       0.09140000
C        2.64720000      -2.01290000       0.14550000
O        3.48540000      -2.35710000      -0.95170000
C        0.06190000      -2.27570000       0.78050000
C       -0.07510000      -0.82230000       1.23980000
H        0.85290000       1.88780000       0.52040000
H        0.00420000       1.90340000      -1.03430000
H       -0.90390000       1.86900000       0.48970000
H        0.14000000      -0.46460000      -2.13750000
H       -0.38300000      -2.98550000      -1.35560000
H        1.44670000      -3.81620000       0.08070000
H        2.49990000      -0.92630000       0.20210000
H        3.19900000      -2.31600000       1.04230000
H        2.99350000      -2.14910000      -1.75310000
H       -0.52130000      -3.02930000       1.29680000
H        0.70040000      -0.52270000       1.95760000
H       -1.03480000      -0.65970000       1.74990000
