22
Properties=species:S:1:pos:R:3 gdb_61562=T pbc="F F F"
C       -0.34000000       1.45290000       0.00900000
N       -0.01870000       0.03950000       0.03140000
C        0.12690000      -0.57610000       1.35250000
C       -1.18660000      -0.88140000       2.04300000
C       -1.95370000      -2.12250000       1.65980000
C       -1.25760000      -2.04960000       2.99550000
C        0.04870000      -0.76910000      -1.07550000
C       -0.11360000      -0.11490000      -2.44220000
O        0.24470000      -1.97240000      -0.98410000
H       -0.27820000       1.85460000      -1.00050000
H       -1.35110000       1.64950000       0.39100000
H        0.36780000       2.00890000       0.63640000
H        0.68790000      -1.50080000       1.20790000
H        0.73120000       0.10010000       1.97140000
H       -1.77800000      -0.01110000       2.31640000
H       -3.03700000      -2.07180000       1.64450000
H       -1.51690000      -2.74790000       0.89000000
H       -0.36090000      -2.64520000       3.13340000
H       -1.86130000      -1.94600000       3.89030000
H        0.64790000       0.64990000      -2.62490000
H       -0.01070000      -0.90230000      -3.18790000
H       -1.09500000       0.35620000      -2.55560000
