14
Properties=species:S:1:pos:R:3 gdb_124167=T pbc="F F F"
C        0.02600000       1.50070000      -0.01160000
C        0.03710000       0.04730000      -0.00900000
C        0.05160000      -1.15810000      -0.00710000
C        0.03140000      -2.56850000      -0.00240000
N        1.13150000      -3.33980000      -0.07290000
N        0.65640000      -4.56810000      -0.03870000
N       -0.67250000      -4.70130000       0.04910000
C       -1.08430000      -3.44210000       0.07320000
O       -2.37310000      -3.08280000       0.15720000
H        1.04580000       1.90050000      -0.00720000
H       -0.48240000       1.89380000      -0.89930000
H       -0.49080000       1.89580000       0.87020000
H        1.26240000      -5.37030000      -0.07670000
H       -2.90200000      -3.88960000       0.19400000
