17
Properties=species:S:1:pos:R:3 gdb_46040=T pbc="F F F"
N        0.30440000       1.09090000       0.28280000
C        0.18280000      -0.11250000      -0.06270000
C       -0.90190000      -1.07320000       0.37180000
O       -0.74910000      -2.18370000      -0.49720000
C        0.57240000      -2.15820000      -0.99650000
O        1.01860000      -0.80240000      -0.90160000
C        1.49740000      -3.09320000      -0.24240000
C        2.96340000      -2.88200000      -0.26810000
N        2.20010000      -2.67410000       0.97590000
H        1.13040000       1.51740000      -0.13870000
H       -0.76860000      -1.35240000       1.42620000
H       -1.89810000      -0.64460000       0.24460000
H        0.53230000      -2.43280000      -2.05690000
H        1.10720000      -4.10780000      -0.20600000
H        3.63160000      -3.73780000      -0.26190000
H        3.33550000      -2.00680000      -0.79270000
H        2.07990000      -1.67440000       1.12220000
