18
Properties=species:S:1:pos:R:3 gdb_65197=T pbc="F F F"
O        0.26910000       1.32160000       0.32230000
C        0.09810000      -0.03340000       0.03010000
C        1.02000000      -0.59270000      -1.00580000
C        1.19570000      -0.99000000       0.44750000
C       -1.32680000      -0.50160000       0.10850000
N       -2.19140000       0.27770000       0.98520000
C       -2.50520000       0.24580000      -0.46180000
C       -2.39080000       1.52620000      -1.22260000
O       -2.99280000       1.71600000      -2.25140000
H       -0.30170000       1.49870000       1.08400000
H        0.63200000      -1.32630000      -1.70430000
H        1.74070000       0.09900000      -1.42630000
H        2.02910000      -0.55300000       0.98480000
H        0.93420000      -2.00040000       0.74510000
H       -1.44100000      -1.58430000       0.10300000
H       -2.84010000      -0.30050000       1.51010000
H       -3.33640000      -0.37150000      -0.79540000
H       -1.71350000       2.28050000      -0.78170000
