18
Properties=species:S:1:pos:R:3 gdb_113917=T pbc="F F F"
N       -1.40370000       1.80750000       1.23770000
H       -0.59930000       2.40920000       1.08210000
H       -2.49700000       2.11370000       2.61060000
H       -1.92120000       1.76070000       0.36570000
C       -0.92560000       0.47070000       1.61550000
C        0.03970000       0.50110000       2.78060000
O        1.04380000       1.52010000       2.78810000
C        0.11440000       1.47400000       3.88720000
C       -0.76920000       2.68850000       4.13090000
C       -2.20610000       2.29930000       4.50240000
O       -2.58950000       2.22690000       5.64030000
O       -3.00360000       2.02650000       3.46230000
H       -1.78860000      -0.14330000       1.89830000
H       -0.42010000      -0.04380000       0.78420000
H        0.42550000      -0.49650000       3.00370000
H        0.56130000       1.08340000       4.80220000
H       -0.36070000       3.25440000       4.97020000
H       -0.76550000       3.32960000       3.24780000
