20
Properties=species:S:1:pos:R:3 gdb_67464=T pbc="F F F"
C       -0.08180000       1.51320000       0.02780000
C        0.07240000       0.02330000      -0.02330000
C        0.58830000      -0.92430000      -1.08550000
C        1.38010000      -1.72970000      -0.04830000
C        0.68620000      -0.88100000       1.07340000
O       -0.26660000      -1.52690000       1.89560000
C       -1.09280000      -2.42390000       1.16700000
C       -1.67100000      -1.79210000      -0.11630000
N       -0.83410000      -0.79800000      -0.79660000
H        0.86780000       2.00240000       0.27110000
H       -0.43450000       1.89230000      -0.93520000
H       -0.81050000       1.80410000       0.79370000
H        0.90840000      -0.70420000      -2.09860000
H        1.26910000      -2.81570000      -0.03630000
H        2.44680000      -1.49330000      -0.09420000
H        1.38380000      -0.38270000       1.74920000
H       -0.53610000      -3.34240000       0.93530000
H       -1.90820000      -2.70130000       1.84130000
H       -1.93160000      -2.58040000      -0.83110000
H       -2.59920000      -1.26450000       0.13160000
