23
Properties=species:S:1:pos:R:3 gdb_119353=T pbc="F F F"
C        0.02730000       1.46180000      -0.14920000
C       -0.00340000      -0.05850000       0.02280000
C       -1.42860000      -0.62530000       0.05990000
C       -1.46870000      -2.12200000       0.15210000
C       -0.79960000      -3.08500000       1.17080000
C       -1.37260000      -3.91900000      -0.00370000
C       -1.17240000      -5.36430000      -0.33650000
C       -2.67930000      -3.08600000       0.06400000
O       -0.82240000      -2.90360000      -0.94290000
H        1.05470000       1.83850000      -0.16990000
H       -0.45670000       1.76470000      -1.08440000
H       -0.49580000       1.96680000       0.67100000
H        0.54340000      -0.54180000      -0.79420000
H        0.51920000      -0.33550000       0.94700000
H       -1.98170000      -0.21040000       0.91320000
H       -1.97440000      -0.32250000      -0.84350000
H        0.28980000      -3.03840000       1.21300000
H       -1.26150000      -3.19490000       2.15620000
H       -1.62180000      -5.99740000       0.43510000
H       -1.63780000      -5.60590000      -1.29700000
H       -0.10550000      -5.59960000      -0.39920000
H       -3.31810000      -3.19630000       0.94510000
H       -3.24290000      -3.03500000      -0.86940000
