11
Properties=species:S:1:pos:R:3 gdb_454=T pbc="F F F"
O       -0.00060000      -0.01360000       0.13320000
C       -0.02860000       1.18180000       0.05740000
N       -1.11000000       1.99450000      -0.22300000
C       -0.82010000       3.37950000       0.09580000
C        0.71670000       3.34560000      -0.01190000
O        1.07070000       1.97990000       0.23310000
H       -2.02420000       1.59530000      -0.08520000
H       -1.26720000       4.07400000      -0.62060000
H       -1.15190000       3.65780000       1.10580000
H        1.05360000       3.62560000      -1.01630000
H        1.21810000       3.97600000       0.72420000
