20
Properties=species:S:1:pos:R:3 gdb_95175=T pbc="F F F"
C       -0.44470000       1.46880000       0.05830000
C       -0.01930000       0.00450000       0.02140000
C        0.72960000      -0.38420000      -1.28080000
C        0.96000000      -1.90230000      -1.35250000
C        1.36810000      -2.50910000      -0.01540000
C        2.60780000      -2.13500000       0.74060000
N        1.29350000      -1.70030000       1.19660000
C        0.95670000      -0.33810000       1.13950000
O        1.45710000       0.47580000       1.88000000
H        0.42350000       2.12730000      -0.03110000
H       -1.13630000       1.68980000      -0.76070000
H       -0.93770000       1.70990000       1.00340000
H       -0.89850000      -0.64790000       0.11150000
H        0.15800000      -0.05560000      -2.15480000
H        1.68140000       0.16160000      -1.31360000
H        0.01990000      -2.37980000      -1.65280000
H        1.69290000      -2.15420000      -2.12740000
H        1.01460000      -3.52780000       0.13560000
H        3.11150000      -2.87460000       1.35680000
H        3.25830000      -1.36880000       0.32550000
