21
Properties=species:S:1:pos:R:3 gdb_90702=T pbc="F F F"
C        0.06280000       1.63580000      -0.02710000
C        0.07970000       0.10170000      -0.02010000
C        0.83570000      -0.53270000      -1.17290000
C        1.58660000      -1.57040000      -0.79810000
C        1.50890000      -1.83250000       0.68420000
C        2.75960000      -1.39290000       1.50700000
O        4.03790000      -1.48710000       0.93210000
C        2.11380000       0.00660000       1.70150000
C        0.74940000      -0.56500000       1.20570000
H        1.07260000       2.05640000      -0.00970000
H       -0.43570000       2.01220000      -0.92670000
H       -0.47940000       2.02620000       0.84030000
H       -0.96930000      -0.22990000      -0.07250000
H        0.72970000      -0.17840000      -2.19410000
H        2.17280000      -2.18840000      -1.47080000
H        1.11790000      -2.83000000       0.91190000
H        2.81940000      -1.94410000       2.44970000
H        4.00450000      -1.03360000       0.08200000
H        2.14480000       0.43020000       2.70780000
H        2.54390000       0.73690000       1.01020000
H        0.05030000      -0.74380000       2.02420000
