20
Properties=species:S:1:pos:R:3 gdb_78377=T pbc="F F F"
C        0.02110000       1.50800000       0.02680000
C        0.04100000      -0.00630000      -0.01420000
C        0.68780000      -0.63330000      -1.22210000
C        1.39270000      -0.65410000       0.14090000
N        1.40920000      -2.13570000       0.17130000
C        0.24690000      -2.82430000       0.82890000
C       -0.46970000      -2.98540000      -0.55180000
O       -1.74480000      -2.41180000      -0.72900000
C        0.70190000      -2.16380000      -1.15790000
H        0.93710000       1.93040000      -0.40090000
H       -0.82470000       1.90680000      -0.54340000
H       -0.06450000       1.87360000       1.05580000
H       -0.84440000      -0.47670000       0.39790000
H        0.92070000      -0.05760000      -2.10970000
H        2.25350000      -0.09810000       0.49910000
H        0.55000000      -3.76050000       1.30730000
H       -0.30210000      -2.21460000       1.55270000
H       -0.45880000      -4.02530000      -0.90480000
H       -2.39920000      -3.01410000      -0.36120000
H        1.24590000      -2.63830000      -1.97990000
