15
Properties=species:S:1:pos:R:3 gdb_127665=T pbc="F F F"
C        0.01240000       1.47530000      -0.07050000
N        0.03940000       0.02450000       0.04530000
N        0.08880000      -0.73730000      -1.06670000
C        0.10050000      -1.97170000      -0.58070000
N        0.06180000      -2.04920000       0.76820000
C        0.02360000      -0.77170000       1.13830000
C       -0.02880000      -0.31100000       2.55750000
N       -0.03290000      -1.34740000       3.42800000
O       -0.06360000       0.86490000       2.88400000
H        0.91090000       1.80980000      -0.59390000
H       -0.86610000       1.77240000      -0.64780000
H       -0.02680000       1.89220000       0.93320000
H        0.13820000      -2.83550000      -1.22730000
H       -0.00240000      -2.29280000       3.08160000
H       -0.06660000      -1.15370000       4.41420000
