19
Properties=species:S:1:pos:R:3 gdb_116620=T pbc="F F F"
C        0.11620000       1.38250000       0.08020000
C       -0.13380000      -0.11640000      -0.13490000
N        0.60630000      -0.62770000      -1.28000000
C        1.80790000      -1.01140000      -1.11410000
N        2.59830000      -1.04570000       0.02640000
C        3.94990000      -1.55200000      -0.18380000
C        3.97120000      -1.87490000      -1.66900000
O        3.04830000      -2.90140000      -2.02110000
C        2.66050000      -1.52790000      -2.23220000
H        1.16650000       1.57380000       0.32120000
H       -0.12790000       1.93900000      -0.82900000
H       -0.50070000       1.76750000       0.89880000
H        0.08510000      -0.66470000       0.79840000
H       -1.19960000      -0.27710000      -0.33120000
H        2.18190000      -1.06250000       0.94180000
H        4.70710000      -0.79410000       0.05870000
H        4.15680000      -2.44700000       0.41650000
H        4.90030000      -1.84270000      -2.22960000
H        2.46620000      -1.22910000      -3.25530000
