20
Properties=species:S:1:pos:R:3 gdb_66351=T pbc="F F F"
C       -0.01890000       1.54100000       0.02980000
C       -0.02460000       0.00080000      -0.00590000
C        0.67810000      -0.53460000      -1.28140000
C        0.86210000      -2.05660000      -1.22160000
C        1.53660000      -2.45490000       0.09120000
O        0.81730000      -1.96730000       1.21510000
C        0.72560000      -0.56460000       1.22950000
C       -1.41770000      -0.47220000       0.01960000
N       -2.51930000      -0.82260000       0.02750000
H        1.01180000       1.90850000       0.02510000
H       -0.53370000       1.95030000      -0.84340000
H       -0.51790000       1.91850000       0.92670000
H        0.11520000      -0.23750000      -2.17160000
H        1.65860000      -0.04410000      -1.34050000
H       -0.11240000      -2.55280000      -1.28920000
H        1.46590000      -2.40090000      -2.06820000
H        1.57640000      -3.54110000       0.20670000
H        2.57150000      -2.07070000       0.11670000
H        1.72970000      -0.10540000       1.24600000
H        0.20640000      -0.29170000       2.15230000
