18
Properties=species:S:1:pos:R:3 gdb_113341=T pbc="F F F"
C        0.35150000       0.93060000      -0.29110000
O       -0.33750000      -0.09940000       0.40730000
C        0.42370000      -0.69460000       1.38580000
C        0.09040000      -2.10770000       1.72890000
C        1.39040000      -1.81420000       0.97790000
O        1.45450000      -2.09040000      -0.37770000
C        1.65960000      -3.46480000      -0.68540000
C        2.63930000      -1.93080000       1.69840000
N        3.64170000      -2.02160000       2.26970000
H        1.21480000       0.52920000      -0.83360000
H       -0.36020000       1.35730000      -1.00030000
H        0.68990000       1.71910000       0.39610000
H        0.77560000      -0.03400000       2.17970000
H        0.13970000      -2.43300000       2.76100000
H       -0.68150000      -2.56460000       1.11970000
H        0.85000000      -4.08770000      -0.28300000
H        1.66780000      -3.53920000      -1.77410000
H        2.61790000      -3.82390000      -0.28930000
