19
Properties=species:S:1:pos:R:3 gdb_99359=T pbc="F F F"
O        0.16180000       1.37670000       0.08230000
C        0.00010000      -0.00130000      -0.11890000
C       -1.45240000      -0.39730000       0.13580000
O       -2.31650000       0.41770000       0.33680000
C       -1.71950000      -1.89950000       0.11960000
C       -3.20460000      -2.24620000       0.01810000
C       -3.45430000      -3.76490000       0.09890000
C       -4.86590000      -4.11360000      -0.00680000
C       -6.03530000      -4.37610000      -0.09730000
H        1.07520000       1.60260000      -0.11540000
H        0.24060000      -0.31290000      -1.15150000
H        0.64060000      -0.61060000       0.54300000
H       -1.14380000      -2.36090000      -0.69460000
H       -1.29160000      -2.31290000       1.04560000
H       -3.75140000      -1.73710000       0.81590000
H       -3.61170000      -1.86000000      -0.92170000
H       -2.89380000      -4.27500000      -0.69620000
H       -3.05340000      -4.15280000       1.04520000
H       -7.06650000      -4.61590000      -0.17530000
