20
Properties=species:S:1:pos:R:3 gdb_113467=T pbc="F F F"
C        0.34050000       1.23050000       0.32470000
O       -0.36530000       0.22420000      -0.37500000
C        0.40550000      -0.40910000      -1.34510000
C        1.34800000      -1.53370000      -0.94460000
C        0.05790000      -1.82300000      -1.65010000
C       -1.12420000      -2.65310000      -1.14650000
C       -1.22890000      -3.15260000      -2.58920000
C       -1.32310000      -2.03190000      -3.54310000
N        0.01750000      -2.39120000      -3.02570000
H        1.22160000       0.82350000       0.84070000
H        0.67480000       2.03290000      -0.35010000
H       -0.34630000       1.65170000       1.06270000
H        0.71850000       0.22880000      -2.17440000
H        2.26760000      -1.65080000      -1.50850000
H        1.40630000      -1.79060000       0.10860000
H       -0.82360000      -3.43130000      -0.44140000
H       -1.98620000      -2.11420000      -0.74460000
H       -1.38620000      -4.18430000      -2.88540000
H       -1.44420000      -2.27290000      -4.59480000
H       -1.76790000      -1.08890000      -3.23270000
