19
Properties=species:S:1:pos:R:3 gdb_61498=T pbc="F F F"
C        0.17880000       1.55850000       0.04040000
C        0.03540000       0.02850000      -0.04620000
C       -1.43170000      -0.47970000       0.06600000
N       -2.09630000      -0.09770000       1.29800000
C       -3.01100000       1.03650000       1.31080000
C       -1.98600000      -0.88700000       2.41020000
O       -2.52130000      -0.68290000       3.47730000
C        0.61170000      -0.47950000      -1.29520000
N        1.04060000      -0.88170000      -2.29030000
H        1.22540000       1.85260000      -0.06660000
H       -0.39580000       2.05240000      -0.74860000
H       -0.17690000       1.90910000       1.01150000
H        0.60310000      -0.42140000       0.77800000
H       -2.01290000      -0.09710000      -0.77850000
H       -1.42300000      -1.57110000      -0.02160000
H       -3.81730000       0.89030000       0.58230000
H       -3.43660000       1.10160000       2.31220000
H       -2.49670000       1.97290000       1.07550000
H       -1.33210000      -1.76270000       2.22440000
