16
Properties=species:S:1:pos:R:3 gdb_3597=T pbc="F F F"
C       -0.45220000       1.42090000       0.23820000
C       -0.01520000      -0.02280000       0.15330000
N        1.28550000      -0.30020000      -0.47250000
C        1.09560000      -0.61470000       0.95430000
C        1.92210000       0.15490000       1.92990000
C        1.85230000      -0.11800000       3.37130000
O        2.95480000      -0.58450000       2.59450000
H        0.39620000       2.08390000       0.42100000
H       -0.92120000       1.73320000      -0.70090000
H       -1.18280000       1.56090000       1.04220000
H       -0.82510000      -0.71610000      -0.07410000
H        1.25360000      -1.14620000      -1.03400000
H        0.98780000      -1.66190000       1.23410000
H        2.22840000       1.14690000       1.60250000
H        2.07790000       0.67370000       4.08460000
H        1.17910000      -0.89210000       3.73930000
