18
Properties=species:S:1:pos:R:3 gdb_86172=T pbc="F F F"
C        0.15760000       1.55120000      -0.13530000
C        0.00530000       0.04250000       0.05320000
O        0.57800000      -0.64840000      -1.05940000
C        1.43460000      -1.70820000      -0.63630000
C        2.76320000      -1.64250000      -1.38160000
C        1.53330000      -1.50800000       0.86920000
C        0.72050000      -0.52030000       1.24930000
C        2.36350000      -2.30330000       1.69970000
N        3.05420000      -2.97380000       2.34430000
H        1.21460000       1.82950000      -0.16510000
H       -0.30940000       1.85370000      -1.07630000
H       -0.32990000       2.09300000       0.68140000
H       -1.07080000      -0.19790000       0.11830000
H        0.95220000      -2.67720000      -0.84650000
H        3.27350000      -0.69820000      -1.17230000
H        3.41250000      -2.47070000      -1.08160000
H        2.58610000      -1.71300000      -2.45790000
H        0.56950000      -0.16670000       2.26080000
