20
Properties=species:S:1:pos:R:3 gdb_59153=T pbc="F F F"
C        0.64410000       0.18940000      -1.29970000
C        0.00710000       0.07290000       0.09310000
C        0.03240000       1.41160000       0.84590000
C       -1.42170000      -0.42340000      -0.04280000
C       -1.87600000      -1.82320000      -0.05250000
C       -1.05690000      -2.73890000       0.85500000
C       -1.36170000      -1.70480000       1.95120000
O       -1.10160000      -1.58330000       3.10730000
N       -2.24170000      -0.89440000       1.12680000
H        1.67880000       0.53700000      -1.22350000
H        0.64650000      -0.77250000      -1.82230000
H        0.09800000       0.90800000      -1.92190000
H        0.59020000      -0.65110000       0.67370000
H       -0.40550000       1.31080000       1.84270000
H        1.05910000       1.77360000       0.95640000
H       -0.53540000       2.17550000       0.30200000
H       -2.03580000       0.24390000      -0.64750000
H       -2.66350000      -2.17100000      -0.71090000
H       -1.55530000      -3.68860000       1.06660000
H       -0.01040000      -2.93140000       0.60810000
