18
Properties=species:S:1:pos:R:3 gdb_4134=T pbc="F F F"
C       -0.23740000       1.48170000      -0.14930000
N       -0.03930000       0.04700000       0.02050000
C        1.30730000      -0.45790000      -0.20640000
C        0.75630000      -0.43460000       1.17680000
C        1.28030000       0.48060000       2.23030000
C        0.56030000       0.54120000       3.55200000
N        2.31170000       1.18910000       1.95460000
O        2.65300000       2.03850000       3.01790000
H        0.62300000       2.09620000       0.15060000
H       -0.44620000       1.67230000      -1.20680000
H       -1.11170000       1.79680000       0.42990000
H        1.37870000      -1.40280000      -0.73940000
H        2.09410000       0.26000000      -0.42460000
H        0.35050000      -1.35850000       1.58520000
H        1.27180000       0.46870000       4.37930000
H        0.04920000       1.50420000       3.66370000
H       -0.18110000      -0.25550000       3.63470000
H        3.45360000       2.46160000       2.69000000
