20
Properties=species:S:1:pos:R:3 gdb_92857=T pbc="F F F"
C       -0.13720000       1.57840000      -0.19620000
C       -0.02000000       0.06080000      -0.03070000
C        0.96720000      -0.55650000      -1.08820000
N        2.30840000      -0.59950000      -0.46680000
C        2.09590000      -0.50400000       0.77690000
O        3.00120000      -0.38920000       1.76630000
C        2.28680000      -0.05420000       2.98160000
C        0.89100000       0.45100000       2.54460000
C        0.67720000      -0.38480000       1.27500000
H        0.84510000       2.06160000      -0.15460000
H       -0.58120000       1.81990000      -1.16700000
H       -0.76940000       2.02480000       0.57830000
H       -1.01490000      -0.38530000      -0.12070000
H        0.65850000      -1.56980000      -1.37970000
H        1.00510000       0.04080000      -2.00550000
H        2.21440000      -0.95580000       3.60190000
H        2.87980000       0.69130000       3.51570000
H        0.14220000       0.29920000       3.32490000
H        0.93560000       1.51900000       2.31300000
H        0.31990000      -1.38460000       1.56020000
