13
Properties=species:S:1:pos:R:3 gdb_129004=T pbc="F F F"
N       -0.10160000       1.30220000       0.01000000
N        1.06190000       1.95600000       0.00270000
H        0.95310000       2.95980000       0.00940000
C        2.30650000       1.42120000      -0.01200000
C        2.49140000       0.05580000      -0.02150000
C        1.32680000      -0.71490000      -0.01490000
N        1.09390000      -2.02510000      -0.02010000
C       -0.27760000      -2.07070000      -0.00740000
N       -0.96300000      -0.92740000       0.00550000
C        0.03720000      -0.00750000       0.00130000
H        3.11500000       2.14080000      -0.01560000
H        3.48630000      -0.37070000      -0.03330000
H       -0.78690000      -3.02780000      -0.00800000
