21
Properties=species:S:1:pos:R:3 gdb_106036=T pbc="F F F"
C       -0.05110000       1.60390000      -0.18000000
C        0.07000000       0.08800000      -0.05870000
C        1.16320000      -0.69960000      -0.84310000
C        2.51900000      -0.10400000      -0.37210000
C        2.17560000      -0.68700000       0.99650000
C        1.24000000      -1.70110000       0.38070000
C        0.65200000      -0.57400000       1.19930000
C        0.03960000      -0.64500000       2.56490000
O        0.20450000       0.54690000       3.32890000
H        0.86960000       2.11740000       0.11040000
H       -0.29280000       1.89970000      -1.20740000
H       -0.85770000       1.98430000       0.45910000
H       -0.90220000      -0.37620000      -0.26830000
H        1.00550000      -0.96850000      -1.88610000
H        3.35940000      -0.63870000      -0.82390000
H        2.67950000       0.97450000      -0.47790000
H        2.82560000      -0.81820000       1.85240000
H        1.16150000      -2.77470000       0.47480000
H       -1.02680000      -0.91250000       2.48190000
H        0.52250000      -1.43570000       3.15060000
H       -0.20030000       1.26720000       2.83600000
