16
Properties=species:S:1:pos:R:3 gdb_24718=T pbc="F F F"
C        0.15350000       1.57160000      -0.09360000
N        1.54510000       1.47140000       0.41840000
C        1.48760000      -0.01500000       0.47670000
C       -0.03280000       0.04050000       0.05950000
N        0.35170000      -0.72690000      -1.14330000
C        0.19330000      -1.15300000      -2.42690000
N        1.36850000      -1.50110000      -2.92340000
C        2.32360000      -1.24000000      -1.96070000
C        1.68900000      -0.76040000      -0.84010000
H       -0.48410000       2.16580000       0.56920000
H        0.03440000       1.93150000      -1.12070000
H        2.25770000       1.83100000      -0.20710000
H        1.87200000      -0.45180000       1.39840000
H       -0.86960000      -0.35630000       0.63050000
H       -0.75670000      -1.24310000      -2.92990000
H        3.36800000      -1.43660000      -2.14390000
