21
Properties=species:S:1:pos:R:3 gdb_37280=T pbc="F F F"
C       -0.03160000       1.51570000      -0.00480000
C        1.30220000       0.80810000      -0.03970000
C        0.01440000       0.00710000      -0.05840000
C        0.15560000      -0.69660000      -1.41060000
C        1.66070000      -1.17210000      -1.41560000
C        1.95560000      -1.61260000      -2.84880000
C        1.24360000      -0.45030000      -3.60480000
C        0.72250000       0.35960000      -2.41160000
C        1.89920000       0.38800000      -1.38530000
H       -0.31040000       1.94140000       0.95470000
H       -0.38110000       2.09730000      -0.84970000
H        1.94860000       0.84520000       0.82980000
H       -0.32270000      -0.56770000       0.79680000
H       -0.64400000      -1.37370000      -1.72060000
H        2.03390000      -1.79120000      -0.59650000
H        3.02840000      -1.66160000      -3.05980000
H        1.53000000      -2.59360000      -3.08160000
H        1.92950000       0.13300000      -4.22710000
H        0.43040000      -0.79940000      -4.24890000
H        0.16430000       1.26270000      -2.65830000
H        2.86630000       0.80970000      -1.66950000
