19
Properties=species:S:1:pos:R:3 gdb_99203=T pbc="F F F"
C        0.00500000       1.34540000       0.15440000
O        0.14100000      -0.07600000       0.03060000
C        0.62700000      -0.50850000      -1.15010000
O        0.93390000       0.22630000      -2.05580000
C        0.72750000      -2.01930000      -1.16850000
C        1.27910000      -2.54730000      -2.50270000
C        1.37740000      -4.00240000      -2.52430000
C        1.44940000      -5.20430000      -2.51860000
C        1.54270000      -6.65750000      -2.52770000
H        0.97400000       1.83760000       0.03860000
H       -0.67830000       1.73550000      -0.60420000
H       -0.39440000       1.51940000       1.15360000
H        1.35950000      -2.33610000      -0.33200000
H       -0.26430000      -2.43640000      -0.96370000
H        0.63790000      -2.19570000      -3.31910000
H        2.26030000      -2.09550000      -2.68800000
H        2.57480000      -6.99030000      -2.68480000
H        1.19920000      -7.08520000      -1.57920000
H        0.93060000      -7.09190000      -3.32600000
