23
Properties=species:S:1:pos:R:3 gdb_105370=T pbc="F F F"
C       -0.18530000       1.38030000       0.01270000
O        0.27000000       0.05130000       0.08290000
C        0.74340000      -0.56500000      -1.09130000
C        0.76690000      -2.06320000      -0.85260000
C       -0.60560000      -2.65760000      -0.60850000
C       -1.44210000      -3.17560000      -1.75200000
C       -0.83210000      -4.13890000      -0.76200000
C        0.43420000      -0.04180000      -2.46950000
C        1.84500000       0.05840000      -1.90650000
H        0.57920000       2.07430000      -0.36670000
H       -1.08750000       1.47990000      -0.60670000
H       -0.43260000       1.67480000       1.03570000
H        1.23870000      -2.55470000      -1.71160000
H        1.41130000      -2.25530000       0.01550000
H       -1.14960000      -2.17180000       0.19510000
H       -2.51460000      -3.01680000      -1.72540000
H       -1.01750000      -3.14510000      -2.75040000
H        0.00140000      -4.74770000      -1.09870000
H       -1.48620000      -4.63970000      -0.05660000
H        0.23130000      -0.76430000      -3.25210000
H       -0.11730000       0.88440000      -2.57810000
H        2.19260000       1.04780000      -1.62910000
H        2.62100000      -0.58700000      -2.30410000
