16
Properties=species:S:1:pos:R:3 gdb_55890=T pbc="F F F"
N        0.81400000       0.08520000      -0.30870000
C       -0.28250000       0.38310000       0.43440000
O       -0.33090000       1.26900000       1.26280000
C       -1.51610000      -0.47810000       0.13100000
N       -1.17020000      -1.72580000      -0.54900000
C       -1.06780000      -2.92870000       0.25740000
C       -2.20630000      -2.75520000      -0.70480000
C       -3.53760000      -2.54700000      -0.18830000
N       -4.61420000      -2.37350000       0.19700000
H        1.63600000       0.65700000      -0.20990000
H        0.76740000      -0.63040000      -1.01440000
H       -2.05580000      -0.62080000       1.07580000
H       -2.16700000       0.10590000      -0.52920000
H       -0.26640000      -3.61570000       0.00310000
H       -1.30590000      -2.85690000       1.31650000
H       -2.18340000      -3.27870000      -1.65640000
