24
Properties=species:S:1:pos:R:3 gdb_123034=T pbc="F F F"
C       -0.09920000       1.36590000       0.03460000
O       -0.20080000      -0.02570000       0.20740000
C        0.80140000      -0.54980000       1.05040000
C        0.60130000      -2.05410000       1.17260000
C        1.65280000      -2.71780000       2.07200000
C        1.50770000      -4.22580000       2.13640000
C        2.02500000      -5.00680000       3.29690000
N        0.59180000      -4.92780000       3.04100000
C       -0.22110000      -4.18530000       3.99100000
H        0.86120000       1.65380000      -0.42310000
H       -0.91130000       1.67530000      -0.62810000
H       -0.19570000       1.90640000       0.99020000
H        1.80320000      -0.32750000       0.64060000
H        0.75300000      -0.07270000       2.04590000
H       -0.40590000      -2.24400000       1.56010000
H        0.63640000      -2.49470000       0.16890000
H        2.65640000      -2.49310000       1.68510000
H        1.61610000      -2.28340000       3.07740000
H        1.55310000      -4.69960000       1.15500000
H        2.48730000      -5.98170000       3.16180000
H        2.42310000      -4.43060000       4.13300000
H        0.27420000      -3.31080000       4.44170000
H       -1.13920000      -3.84550000       3.50040000
H       -0.50590000      -4.86000000       4.80500000
