19
Properties=species:S:1:pos:R:3 gdb_80855=T pbc="F F F"
C        0.01980000       1.45540000       0.02160000
C       -0.03720000      -0.04250000       0.08620000
O        0.44730000      -0.75820000      -1.11320000
C       -0.28180000      -1.90060000      -0.55710000
C        0.51940000      -2.24520000       0.70520000
C        0.79470000      -0.78000000       1.17300000
O        2.15430000      -0.40370000       1.11120000
C       -1.32670000      -0.87510000      -0.03740000
O       -2.03730000      -1.09450000       1.15090000
H        1.05540000       1.80090000       0.08080000
H       -0.42990000       1.82640000      -0.90330000
H       -0.52740000       1.87860000       0.87040000
H       -0.50500000      -2.67600000      -1.28980000
H       -0.06450000      -2.82170000       1.42590000
H        1.45160000      -2.77090000       0.48740000
H        0.45360000      -0.57530000       2.18880000
H        2.41200000      -0.51660000       0.18650000
H       -1.95460000      -0.49990000      -0.85310000
H       -2.86330000      -1.54140000       0.94390000
