13
Properties=species:S:1:pos:R:3 gdb_12188=T pbc="F F F"
C        0.41660000       1.49620000      -0.08020000
C        0.02630000       0.03890000       0.08250000
O        0.76460000      -0.86650000      -0.78940000
C        1.31740000      -1.64710000       0.28230000
C        2.77510000      -1.64380000       0.32690000
N        3.92930000      -1.62420000       0.38320000
C        0.58340000      -0.70950000       1.29870000
O        0.51030000      -0.62930000       2.47900000
H        1.49150000       1.63380000       0.06280000
H        0.15040000       1.84180000      -1.08280000
H       -0.12010000       2.10580000       0.65280000
H       -1.05630000      -0.10050000      -0.03960000
H        0.94200000      -2.67860000       0.29270000
