17
Properties=species:S:1:pos:R:3 gdb_28937=T pbc="F F F"
C       -0.07640000       1.49270000       0.07150000
C       -0.01860000       0.00430000      -0.03350000
C       -0.02860000      -0.81680000      -1.13680000
C        0.03280000      -2.16670000      -0.68830000
C        0.07800000      -2.13850000       0.68050000
N        0.05650000      -0.81680000       1.08050000
C        0.03380000      -0.37860000       2.45540000
C       -1.31210000      -0.01820000       2.93680000
N       -2.36320000       0.27610000       3.31440000
H        0.81040000       1.91660000       0.56100000
H       -0.12920000       1.92300000      -0.93080000
H       -0.95540000       1.84110000       0.62760000
H       -0.06990000      -0.47710000      -2.16080000
H        0.05040000      -3.05370000      -1.30240000
H        0.12580000      -2.93010000       1.41150000
H        0.42930000      -1.17850000       3.08770000
H        0.68910000       0.48840000       2.59020000
