17
Properties=species:S:1:pos:R:3 gdb_22352=T pbc="F F F"
C       -0.20990000       1.60660000       0.12410000
C        0.09550000       0.11940000       0.01280000
O        0.97010000      -0.12610000      -1.10620000
C        2.08490000      -0.84330000      -0.76540000
N        2.98370000      -1.19380000      -1.57740000
C        2.07890000      -1.14640000       0.71640000
C        0.83450000      -0.46680000       1.20100000
N        0.38810000      -0.33900000       2.38240000
O        1.23150000      -0.96260000       3.31120000
H        0.70970000       2.17730000       0.28030000
H       -0.69620000       1.96390000      -0.78730000
H       -0.87480000       1.77720000       0.97460000
H       -0.83230000      -0.43800000      -0.17090000
H        2.75950000      -0.87270000      -2.52080000
H        2.05720000      -2.22570000       0.90070000
H        2.97890000      -0.76810000       1.20970000
H        0.78810000      -0.78480000       4.14800000
