14
Properties=species:S:1:pos:R:3 gdb_19902=T pbc="F F F"
O        0.28520000       0.19080000      -0.58870000
C        0.30620000       1.38030000      -0.40980000
N        1.26720000       2.03030000       0.37060000
C        2.69040000       1.98520000       0.26350000
C        3.16830000       2.22270000      -1.21670000
N        1.96670000       2.38540000      -2.06530000
C        2.45390000       3.51530000      -1.26160000
C        1.93260000       3.29160000       0.20530000
H       -0.49820000       2.07310000      -0.71850000
H        3.30270000       1.56200000       1.04990000
H        4.12120000       1.92710000      -1.63230000
H        2.26650000       2.50570000      -3.03100000
H        2.73020000       4.46570000      -1.69740000
H        1.82360000       4.06880000       0.95170000
