11
Properties=species:S:1:pos:R:3 gdb_9993=T pbc="F F F"
O        0.01710000       0.01170000       0.05620000
C        0.05080000       1.19740000       0.11290000
O        1.11010000       1.91240000      -0.35720000
C        1.05360000       3.33820000      -0.22210000
C        2.15210000       3.82020000       0.60820000
C        3.04060000       4.22370000       1.30500000
C        1.08380000       3.94210000      -1.56830000
N        1.08360000       4.42970000      -2.61430000
H       -0.74410000       1.83910000       0.53960000
H        0.09650000       3.62300000       0.24170000
H        3.83420000       4.57780000       1.91740000
