23
Properties=species:S:1:pos:R:3 gdb_60528=T pbc="F F F"
C       -0.00060000       1.55910000       0.04230000
C       -0.00690000       0.03180000       0.05940000
C        0.76750000      -0.49560000       1.27920000
O       -1.37540000      -0.36700000       0.14270000
C        0.58980000      -0.56890000      -1.24010000
O        0.38170000      -1.98390000      -1.11970000
C       -0.05400000      -0.05290000      -2.50570000
C        0.59460000       1.03040000      -3.32480000
C        0.57820000      -0.38490000      -3.84200000
H        1.01650000       1.94740000      -0.06800000
H       -0.61360000       1.94530000      -0.77420000
H       -0.41030000       1.93520000       0.98410000
H        0.28540000      -0.14610000       2.19630000
H        0.78160000      -1.58810000       1.28490000
H        1.80430000      -0.14170000       1.27520000
H       -1.37200000      -1.31750000      -0.03240000
H        1.67130000      -0.35700000      -1.27050000
H        0.39810000      -2.35020000      -2.00950000
H       -1.13890000      -0.05460000      -2.46710000
H       -0.04600000       1.76330000      -3.80200000
H        1.54380000       1.42870000      -2.98190000
H        1.52050000      -0.92560000      -3.84440000
H       -0.07260000      -0.62510000      -4.67520000
