14
Properties=species:S:1:pos:R:3 gdb_130319=T pbc="F F F"
N        0.12110000       1.39580000       0.07640000
C        0.03300000       0.00430000       0.01080000
N       -1.11190000      -0.63680000       0.00580000
O       -0.78160000      -1.98960000       0.01510000
C        0.55660000      -2.12590000       0.01410000
C        1.14030000      -0.89750000       0.02280000
N        2.48170000      -0.51400000       0.06540000
C        3.53090000      -1.38730000      -0.00220000
O        3.41800000      -2.58200000      -0.16540000
H        0.62840000       1.79070000      -0.70830000
H       -0.80220000       1.81310000       0.11770000
H        0.95490000      -3.12460000       0.01110000
H        2.67060000       0.44770000       0.30670000
H        4.50240000      -0.87010000       0.10310000
