15
Properties=species:S:1:pos:R:3 gdb_12718=T pbc="F F F"
C       -0.09180000       1.55580000       0.02880000
C        0.06230000       0.06590000       0.07690000
O       -1.18600000      -0.66090000       0.23290000
C       -0.65140000      -1.47030000       1.30370000
C        0.74370000      -0.83310000       1.15880000
N        1.57490000      -1.38590000       0.09330000
C        0.97550000      -0.68420000      -0.94330000
O        1.10920000      -0.71730000      -2.13410000
H        0.88640000       2.04530000       0.00370000
H       -0.63260000       1.83350000      -0.88180000
H       -0.65550000       1.92090000       0.89160000
H       -1.15050000      -1.24290000       2.25340000
H       -0.71820000      -2.54430000       1.09820000
H        1.27410000      -0.47570000       2.04040000
H        2.07100000      -2.26640000       0.05690000
