17
Properties=species:S:1:pos:R:3 gdb_1729=T pbc="F F F"
C       -0.02430000       1.45460000      -0.01850000
C       -0.01070000      -0.00150000      -0.00660000
C       -0.00470000      -1.20680000       0.00650000
C        0.03270000      -2.64740000       0.00310000
C        1.21470000      -3.26080000      -0.73370000
C       -0.49510000      -3.36990000       1.23450000
C       -1.29670000      -3.38770000      -0.03660000
H        0.83620000       1.85370000      -0.56720000
H       -0.92920000       1.84440000      -0.49860000
H        0.01440000       1.86550000       0.99680000
H        2.16170000      -2.93920000      -0.28890000
H        1.17170000      -4.35370000      -0.69120000
H        1.21750000      -2.96020000      -1.78620000
H        0.02030000      -4.27700000       1.53220000
H       -0.85340000      -2.76250000       2.05690000
H       -2.20080000      -2.79240000      -0.07970000
H       -1.33170000      -4.30700000      -0.61160000
