15
Properties=species:S:1:pos:R:3 gdb_126820=T pbc="F F F"
C        0.08670000       1.57870000      -0.02450000
C       -0.06690000       0.06440000       0.10390000
N        0.64070000      -0.46370000       1.26730000
N        1.98290000      -0.48020000       1.31480000
C        2.23450000      -0.99670000       2.51340000
N        1.14070000      -1.31350000       3.24300000
C        0.14990000      -0.96460000       2.43100000
C       -1.24120000      -1.08230000       2.69400000
N       -2.38250000      -1.15980000       2.86760000
H        1.14160000       1.84970000      -0.10660000
H       -0.43430000       1.92430000      -0.92150000
H       -0.34120000       2.09080000       0.84180000
H       -1.11550000      -0.22140000       0.21570000
H        0.33410000      -0.44580000      -0.77570000
H        3.24360000      -1.15020000       2.86460000
