19
Properties=species:S:1:pos:R:3 gdb_71771=T pbc="F F F"
C        0.02310000       1.47430000      -0.04330000
C       -0.04190000      -0.02480000      -0.00540000
O        0.89650000      -0.63140000      -0.87320000
C        0.45910000      -1.94110000      -1.12960000
C        0.14880000      -2.81210000       0.05860000
C        0.32700000      -2.13710000       1.41160000
C       -0.37320000      -0.79420000       1.25070000
C       -1.31110000      -0.85280000       0.04000000
C       -0.98200000      -2.12210000      -0.70800000
H        1.00800000       1.82880000       0.27850000
H       -0.15840000       1.84490000      -1.05710000
H       -0.72800000       1.90570000       0.62410000
H        0.88630000      -2.35260000      -2.03630000
H        0.30850000      -3.88100000      -0.03380000
H       -0.14340000      -2.72730000       2.20660000
H        1.38640000      -2.01610000       1.66790000
H       -0.65010000      -0.22800000       2.13400000
H       -2.30360000      -0.42240000       0.02450000
H       -1.72140000      -2.64600000      -1.29800000
