18
Properties=species:S:1:pos:R:3 gdb_106852=T pbc="F F F"
C        0.24760000       1.47180000       0.21300000
C       -0.19410000       0.03030000      -0.08090000
C        0.41960000      -0.50420000      -1.33600000
C        0.09300000      -0.16650000      -2.80490000
C        0.54480000      -1.61190000      -3.20810000
C        0.86050000      -1.87210000      -1.72690000
O        1.80440000      -0.87460000      -1.30960000
C        0.81920000      -3.10730000      -1.00860000
N        0.75520000      -4.11990000      -0.45280000
H        1.33390000       1.52730000       0.32690000
H       -0.04370000       2.15150000      -0.59440000
H       -0.21180000       1.83330000       1.13680000
H        0.08740000      -0.62740000       0.74820000
H       -1.28540000      -0.01790000      -0.17570000
H       -0.97160000       0.00290000      -2.97940000
H        0.67100000       0.66090000      -3.22050000
H       -0.27710000      -2.22430000      -3.58250000
H        1.40640000      -1.69850000      -3.87210000
