19
Properties=species:S:1:pos:R:3 gdb_98548=T pbc="F F F"
C       -0.29080000       1.35770000      -0.25060000
O       -0.29230000      -0.06770000      -0.38460000
C        0.81640000      -0.59100000      -0.95540000
O        1.74950000       0.07960000      -1.33330000
C        0.72260000      -2.05870000      -1.06630000
C        1.98570000      -2.88240000      -1.18040000
C        1.04950000      -2.88770000      -2.33710000
C       -0.15950000      -3.78990000      -2.06190000
C       -0.48700000      -2.95490000      -0.77940000
H        0.55320000       1.68790000       0.36020000
H       -0.22080000       1.83840000      -1.22990000
H       -1.23450000       1.61190000       0.23260000
H        2.88380000      -2.28900000      -1.30750000
H        2.09140000      -3.76320000      -0.55080000
H        1.34080000      -2.48940000      -3.30110000
H       -0.94020000      -3.70640000      -2.82030000
H        0.07150000      -4.84960000      -1.91420000
H       -0.46530000      -3.48700000       0.17680000
H       -1.43300000      -2.41910000      -0.86050000
