14
Properties=species:S:1:pos:R:3 gdb_27393=T pbc="F F F"
N        0.07510000       1.34650000       0.13050000
C       -0.01280000      -0.02760000       0.03000000
N       -1.15550000      -0.61790000       0.02310000
C       -1.21990000      -2.02910000       0.01050000
O       -2.29010000      -2.60550000       0.02690000
C        0.06120000      -2.74640000      -0.03730000
C        1.21740000      -2.05670000      -0.03250000
O        2.47910000      -2.53600000      -0.04710000
N        1.20330000      -0.68140000      -0.01230000
H        0.81080000       1.79480000      -0.39700000
H       -0.82780000       1.78340000       0.00880000
H        0.04560000      -3.82830000      -0.07120000
H        2.44340000      -3.49900000      -0.03380000
H        2.07070000      -0.19650000       0.15740000
