15
Properties=species:S:1:pos:R:3 gdb_15597=T pbc="F F F"
O       -0.00350000       1.49870000       0.33080000
C        0.02070000       0.12800000       0.02180000
C        0.71140000      -0.68880000       1.11700000
O       -0.27540000      -0.75060000       2.14030000
C       -1.49580000      -1.10060000       1.50090000
C       -1.40180000      -0.53300000       0.04140000
C       -2.47940000       0.38460000      -0.29830000
N       -3.35810000       1.09070000      -0.55280000
H       -0.28180000       1.58740000       1.25110000
H        0.48950000       0.03720000      -0.96000000
H        0.98630000      -1.69530000       0.76160000
H        1.59570000      -0.18930000       1.51660000
H       -1.61620000      -2.19180000       1.46760000
H       -2.31930000      -0.67240000       2.07490000
H       -1.42040000      -1.35860000      -0.67650000
