18
Properties=species:S:1:pos:R:3 gdb_53306=T pbc="F F F"
C        0.00350000       1.48600000       0.05490000
C        0.00640000       0.02960000       0.03530000
C        0.04320000      -1.17630000       0.03180000
C        0.04800000      -2.61060000       0.00480000
C       -0.47390000      -3.40410000       1.20000000
C       -1.27490000      -3.35620000      -0.07030000
N       -2.46830000      -2.57600000      -0.15030000
C       -3.69970000      -3.13880000      -0.26710000
O       -3.92360000      -4.33070000      -0.25530000
H        1.01680000       1.87830000       0.19500000
H       -0.38600000       1.90140000      -0.88100000
H       -0.61470000       1.87150000       0.87310000
H        0.86760000      -3.05920000      -0.54850000
H        0.03760000      -4.32560000       1.45350000
H       -0.84340000      -2.82980000       2.04100000
H       -1.31470000      -4.25320000      -0.67750000
H       -2.36630000      -1.57410000      -0.23310000
H       -4.49120000      -2.37120000      -0.38090000
