15
Properties=species:S:1:pos:R:3 gdb_25885=T pbc="F F F"
N       -0.14110000       1.29770000       0.25150000
C        0.04560000      -0.04530000       0.04520000
N        1.22590000      -0.53380000      -0.07720000
C       -1.22240000      -0.80840000       0.02080000
C       -1.42410000      -2.14590000       0.05490000
O       -2.78380000      -2.37140000       0.00730000
C       -3.32350000      -1.13270000      -0.05020000
N       -4.68370000      -1.06070000      -0.17640000
N       -2.46410000      -0.16270000      -0.04000000
H        0.65390000       1.88520000       0.05850000
H       -1.05850000       1.66630000       0.05970000
H        1.18740000      -1.54350000      -0.19840000
H       -0.80010000      -3.01860000       0.12350000
H       -5.19450000      -1.83220000       0.22610000
H       -5.06170000      -0.15360000       0.05100000
