16
Properties=species:S:1:pos:R:3 gdb_131627=T pbc="F F F"
O        0.22830000       0.81540000      -1.05580000
C       -0.30510000       0.43120000       0.18600000
C       -1.43810000      -0.54590000       0.05570000
C       -2.13830000      -1.02980000      -1.01510000
C       -1.95830000      -0.74180000      -2.46960000
O       -2.04540000       0.67940000      -2.67760000
C       -3.10460000      -1.87520000      -0.40140000
N       -2.99950000      -1.90810000       0.90150000
O       -1.93580000      -1.04970000       1.19410000
H       -0.50670000       1.12050000      -1.61330000
H        0.50520000      -0.03480000       0.75920000
H       -0.65330000       1.29150000       0.78220000
H       -0.98550000      -1.10880000      -2.82120000
H       -2.74160000      -1.25600000      -3.04170000
H       -1.88130000       0.85260000      -3.61140000
H       -3.87350000      -2.46640000      -0.88060000
