20
Properties=species:S:1:pos:R:3 gdb_80584=T pbc="F F F"
C       -0.03710000       1.65900000      -0.22490000
C        0.25840000       0.24140000       0.20510000
C        0.58330000      -0.89500000      -0.68410000
C        1.41990000      -0.49010000      -1.89550000
C        2.41120000       0.13060000      -0.89340000
N        1.61550000      -0.34820000       0.30410000
C        3.80460000      -0.49830000      -0.86580000
C        4.63560000      -0.17350000       0.35680000
O        4.20310000      -1.20100000      -1.76520000
H        0.40380000       1.92110000      -1.18890000
H       -1.12000000       1.79450000      -0.31300000
H        0.32640000       2.37340000       0.52190000
H       -0.30600000      -0.05460000       1.08850000
H        0.13960000      -1.87610000      -0.54290000
H        1.87590000      -1.33440000      -2.41330000
H        0.94600000       0.16700000      -2.62950000
H        2.53720000       1.22090000      -0.91610000
H        4.07380000      -0.43900000       1.25720000
H        5.58360000      -0.71080000       0.31890000
H        4.82640000       0.90520000       0.40490000
