19
Properties=species:S:1:pos:R:3 gdb_105914=T pbc="F F F"
O        0.48930000       0.14550000      -1.02970000
C       -0.11780000       0.16580000       0.25720000
C       -1.50770000      -0.39970000       0.18920000
C       -2.63950000       0.11520000      -0.72060000
O       -2.42440000       0.13040000      -2.12020000
C       -3.27000000      -1.10290000      -0.02730000
C       -1.92000000      -1.90880000      -0.04740000
C       -1.98910000      -2.19620000       1.46410000
C       -2.53520000      -0.76170000       1.32170000
H       -0.15110000       0.52110000      -1.64690000
H        0.52700000      -0.42630000       0.91700000
H       -0.15180000       1.18930000       0.66740000
H       -3.06030000       1.09500000      -0.47200000
H       -2.16580000      -0.75750000      -2.39340000
H       -4.27300000      -1.52210000      -0.12050000
H       -1.55770000      -2.56150000      -0.84350000
H       -2.70130000      -2.96250000       1.78540000
H       -1.03740000      -2.31440000       1.99140000
H       -2.90460000      -0.07960000       2.08890000
