16
Properties=species:S:1:pos:R:3 gdb_50830=T pbc="F F F"
N       -0.24490000       1.28520000       0.17370000
C       -0.04650000       0.05910000      -0.01820000
O       -1.11570000      -0.79310000       0.13290000
C       -0.90850000      -2.13600000      -0.07150000
O        0.15450000      -2.61690000      -0.35500000
C       -2.21050000      -2.87000000       0.07620000
C       -3.05730000      -2.97790000      -1.22760000
O       -2.98330000      -4.41080000      -1.20510000
C       -2.15120000      -4.40490000      -0.02510000
H        0.62170000       1.80200000       0.03010000
H        0.87200000      -0.45790000      -0.29580000
H       -2.76690000      -2.46600000       0.92180000
H       -4.08460000      -2.60750000      -1.14180000
H       -2.59280000      -2.54920000      -2.12420000
H       -1.14920000      -4.79950000      -0.22150000
H       -2.61240000      -4.95050000       0.80510000
