19
Properties=species:S:1:pos:R:3 gdb_78883=T pbc="F F F"
C        0.09750000       1.59090000      -0.01570000
C        0.00780000       0.06500000      -0.01790000
C        0.81290000      -0.62250000      -1.10220000
C        2.24230000      -0.86930000      -0.63970000
C        1.24940000      -2.01470000      -0.67410000
C        1.15840000      -1.98730000       0.86940000
C        2.15330000      -0.83500000       0.90380000
C        0.69050000      -0.57510000       1.18770000
O        0.35010000      -0.21600000       2.48650000
H        1.14320000       1.91570000      -0.02890000
H       -0.40330000       2.02220000      -0.88840000
H       -0.36960000       2.00220000       0.88460000
H       -1.04570000      -0.24680000      -0.06260000
H        0.62650000      -0.43080000      -2.15250000
H        3.12200000      -0.69880000      -1.24500000
H        1.22120000      -2.88660000      -1.31350000
H        1.05780000      -2.82280000       1.54870000
H        2.94080000      -0.63100000       1.61530000
H       -0.50120000      -0.61720000       2.69380000
