14
Properties=species:S:1:pos:R:3 gdb_18188=T pbc="F F F"
N       -0.03630000      -1.18770000      -0.17910000
C       -0.01210000      -0.03740000      -0.07310000
C       -0.00610000       1.42350000       0.03450000
C       -0.61610000       1.94210000       1.33750000
C        0.20080000       2.78520000       1.96730000
C        1.50260000       2.90860000       1.24740000
N        2.22530000       1.60750000       1.18830000
C        1.40340000       2.03490000       0.04790000
H       -0.56930000       1.81160000      -0.82600000
H       -1.59050000       1.61250000       1.67490000
H       -0.01720000       3.29230000       2.89900000
H        2.07280000       3.83080000       1.25290000
H        3.20400000       1.77330000       0.95990000
H        1.87820000       2.27430000      -0.89620000
