15
Properties=species:S:1:pos:R:3 gdb_14323=T pbc="F F F"
N        0.00280000       1.28540000      -0.02390000
C       -0.00580000       0.02590000      -0.01760000
C       -1.23340000      -0.85470000      -0.15830000
C       -0.66820000      -2.24450000      -0.38880000
O       -0.34960000      -2.51950000      -1.77320000
C        1.06380000      -2.61660000      -1.48170000
C        0.83400000      -2.13630000      -0.04070000
O        1.11450000      -0.75520000       0.15660000
H        0.95160000       1.64180000       0.10200000
H       -1.82210000      -0.80740000       0.76390000
H       -1.86630000      -0.52160000      -0.98220000
H       -1.24590000      -3.05600000       0.06280000
H        1.42760000      -3.64830000      -1.56490000
H        1.67120000      -1.95400000      -2.10640000
H        1.26730000      -2.70950000       0.77910000
