22
Properties=species:S:1:pos:R:3 gdb_103461=T pbc="F F F"
C       -0.16820000       1.61930000       0.16470000
C       -0.10390000       0.10360000       0.18700000
C       -1.37240000      -0.51960000      -0.38800000
O       -1.46950000      -0.24130000      -1.77520000
N        1.05640000      -0.67610000      -0.34420000
C        2.31600000       0.06880000      -0.00840000
C        2.01020000       0.04340000       1.50720000
C        0.70690000      -0.68900000       1.14950000
C        0.26890000      -1.90150000       1.92450000
H        0.76180000       2.11030000       0.45090000
H       -0.44590000       1.95460000      -0.83870000
H       -0.94640000       1.96120000       0.85610000
H       -1.38710000      -1.60150000      -0.21190000
H       -2.26280000      -0.08630000       0.08020000
H       -0.64770000      -0.57870000      -2.15450000
H        3.17910000      -0.53910000      -0.28780000
H        2.40690000       1.04400000      -0.49590000
H        2.69940000      -0.59270000       2.06700000
H        1.91440000       0.99610000       2.03520000
H       -0.03710000      -1.60360000       2.93510000
H       -0.56830000      -2.42770000       1.46370000
H        1.09710000      -2.61150000       2.02670000
