17
Properties=species:S:1:pos:R:3 gdb_90465=T pbc="F F F"
C       -0.60220000       1.17620000      -0.00950000
C        0.30570000      -0.03410000       0.01240000
O        1.19000000      -0.02140000      -1.11340000
C        2.47240000      -0.33170000      -0.66710000
C        2.42860000      -0.33790000       0.81600000
O        1.12200000      -0.03090000       1.18840000
C        2.70240000      -1.66140000       0.07640000
C        1.78190000      -2.75320000       0.04470000
C        1.02360000      -3.68730000       0.01850000
H       -0.00630000       2.09190000       0.01250000
H       -1.21220000       1.16520000      -0.91660000
H       -1.26570000       1.15730000       0.85910000
H       -0.26480000      -0.97060000      -0.00830000
H        3.25510000       0.09140000      -1.28440000
H        3.17340000       0.08000000       1.48190000
H        3.75270000      -1.94510000       0.10630000
H        0.35080000      -4.50820000      -0.00430000
