16
Properties=species:S:1:pos:R:3 gdb_103727=T pbc="F F F"
O        0.14040000       0.73180000       0.86900000
C       -0.15010000       0.19520000      -0.41680000
C       -1.51520000      -0.45660000      -0.39080000
O       -2.52900000       0.39120000       0.02820000
C       -1.91600000      -1.50170000      -1.37650000
C       -1.59070000      -1.92150000       0.05830000
O       -0.36650000      -2.54600000       0.32040000
C       -2.67320000      -2.32170000       0.92590000
N       -3.51040000      -2.68150000       1.63820000
H        0.37220000      -0.00830000       1.44190000
H       -0.17820000       1.04630000      -1.10440000
H        0.61780000      -0.50790000      -0.75330000
H       -2.17890000       0.86340000       0.79710000
H       -2.95610000      -1.52080000      -1.68050000
H       -1.19480000      -1.80590000      -2.12760000
H       -0.42910000      -3.47260000       0.05980000
