17
Properties=species:S:1:pos:R:3 gdb_77551=T pbc="F F F"
C       -0.05740000       1.45000000       0.16750000
C       -0.04680000      -0.02600000      -0.06250000
C        0.69570000      -0.88240000      -1.11210000
C        0.11750000      -1.83640000      -0.05230000
O        0.54330000      -0.89710000       1.01800000
C        0.33650000      -3.29500000       0.15720000
O        0.35670000      -4.09520000      -0.74370000
C       -1.24010000      -1.03030000      -0.11340000
O       -2.08710000      -1.08430000       0.97450000
H        0.95350000       1.81970000       0.36160000
H       -0.45310000       1.96310000      -0.71440000
H       -0.69300000       1.69780000       1.02320000
H        0.28490000      -0.93180000      -2.12250000
H        1.78170000      -0.79510000      -1.09170000
H        0.45890000      -3.59250000       1.22170000
H       -1.82400000      -1.10210000      -1.03280000
H       -1.50940000      -1.00610000       1.74930000
