11
Properties=species:S:1:pos:R:3 gdb_25058=T pbc="F F F"
O       -0.04310000      -0.04810000       0.00360000
C        0.01330000       1.14380000       0.00940000
O       -1.18620000       1.88170000       0.02890000
C       -1.16560000       3.21480000       0.03560000
C       -0.00300000       3.91500000       0.02420000
N        1.22370000       3.27120000       0.00480000
C        1.22000000       1.98410000      -0.00200000
C       -0.02140000       5.34380000       0.03200000
N       -0.06080000       6.50000000       0.03860000
H       -2.15320000       3.66060000       0.05090000
H        2.16550000       1.44830000      -0.01730000
