20
Properties=species:S:1:pos:R:3 gdb_50693=T pbc="F F F"
O       -0.52160000       0.62220000      -0.68910000
C        0.08790000       1.07340000       0.24600000
C        1.31800000       1.95990000       0.12400000
C        1.49580000       2.56740000      -1.27370000
C        2.68830000       3.52670000      -1.25830000
C        2.43940000       4.69070000      -0.28520000
C        1.87880000       4.23680000       1.06560000
C        0.41010000       4.03440000       1.23170000
N        1.32050000       2.88920000       1.25850000
H       -0.20610000       0.86040000       1.29750000
H        2.17400000       1.28500000       0.30140000
H        1.64060000       1.75510000      -1.99100000
H        0.58230000       3.08850000      -1.58550000
H        3.58750000       2.97440000      -0.95400000
H        2.88530000       3.91970000      -2.26060000
H        3.37020000       5.24060000      -0.11730000
H        1.74350000       5.40090000      -0.74790000
H        2.43670000       4.58020000       1.93410000
H       -0.08400000       4.25350000       2.17460000
H       -0.20800000       4.19800000       0.35040000
