15
Properties=species:S:1:pos:R:3 gdb_15925=T pbc="F F F"
N        0.05900000      -1.15030000      -0.25510000
C        0.02820000      -0.00190000      -0.11750000
C       -0.00620000       1.42830000       0.04610000
C       -0.52780000       2.30220000      -1.14180000
C        0.76550000       3.17160000      -1.08160000
C        1.25360000       2.36570000       0.13790000
O        0.79480000       2.90710000       1.38730000
C       -0.32970000       2.00630000       1.44380000
H       -0.63840000       1.73820000      -2.06840000
H       -1.46880000       2.81430000      -0.92950000
H        1.40240000       3.05000000      -1.96110000
H        0.63350000       4.23540000      -0.87740000
H        2.28740000       2.01630000       0.18130000
H       -1.28920000       2.52890000       1.53270000
H       -0.22650000       1.28200000       2.25950000
