19
Properties=species:S:1:pos:R:3 gdb_120108=T pbc="F F F"
O       -0.38900000       1.71060000      -0.02300000
C        0.03990000       0.37120000       0.11490000
C       -1.14410000      -0.59030000       0.24810000
N       -2.03280000      -0.36230000      -0.89940000
C       -2.49110000      -1.25290000      -1.92220000
C       -3.12580000      -2.59820000      -1.40250000
N       -3.00830000      -2.65140000       0.07680000
C       -4.07310000      -1.84550000      -0.56050000
C       -3.45360000      -0.48630000      -1.05020000
H       -1.08550000       1.66960000      -0.69230000
H        0.66400000       0.06190000      -0.74130000
H        0.66510000       0.31770000       1.01320000
H       -0.80120000      -1.62500000       0.30320000
H       -1.69970000      -0.37230000       1.16470000
H       -2.20840000      -1.09650000      -2.95800000
H       -3.27710000      -3.48950000      -1.99640000
H       -3.43470000      -3.52820000       0.37650000
H       -5.12250000      -2.02020000      -0.36330000
H       -4.05270000       0.38990000      -1.27460000
