20
Properties=species:S:1:pos:R:3 gdb_97940=T pbc="F F F"
C       -0.02220000       1.77250000       0.85830000
N       -0.12060000       0.37830000       0.45100000
C        0.99210000      -0.20030000      -0.29300000
C        0.70060000      -0.63700000       1.10210000
C        1.67660000      -0.32620000       2.23350000
C        1.00910000      -0.17640000       3.52420000
C        0.43910000      -0.05530000       4.57890000
C       -0.30800000       0.09070000       5.82770000
O       -1.52210000       0.81520000       5.67790000
H        1.00490000       2.13080000       1.03040000
H       -0.46290000       2.39480000       0.07310000
H       -0.59430000       1.92270000       1.77860000
H        0.73330000      -0.82550000      -1.14380000
H        1.88100000       0.41510000      -0.43870000
H        0.17140000      -1.57720000       1.25050000
H        2.40280000      -1.14800000       2.29120000
H        2.25980000       0.57230000       2.00500000
H       -0.48820000      -0.90480000       6.26460000
H        0.28370000       0.65210000       6.55950000
H       -2.01020000       0.40840000       4.95430000
