21
Properties=species:S:1:pos:R:3 gdb_109607=T pbc="F F F"
C       -0.08140000       1.50350000       0.32760000
C       -0.02550000       0.06410000      -0.19800000
C       -1.37780000      -0.61900000      -0.13880000
C       -1.55920000      -2.12140000      -0.10220000
C       -0.39930000      -3.09240000      -0.10770000
C       -1.85460000      -1.27760000       1.14320000
O       -0.90450000      -1.28210000       2.17980000
C       -3.21880000      -1.12110000       1.57310000
C       -4.35760000      -1.02150000       1.94990000
H        0.89390000       1.99260000       0.24100000
H       -0.80690000       2.10360000      -0.23290000
H       -0.37670000       1.51750000       1.38090000
H        0.32120000       0.06160000      -1.23960000
H        0.70850000      -0.50270000       0.37890000
H       -2.15930000      -0.08090000      -0.66970000
H       -2.44760000      -2.48230000      -0.61290000
H        0.38560000      -2.78770000       0.58700000
H       -0.73470000      -4.09300000       0.18620000
H        0.04170000      -3.17370000      -1.10710000
H       -1.12550000      -2.00620000       2.77630000
H       -5.36150000      -0.91690000       2.27930000
