18
Properties=species:S:1:pos:R:3 gdb_115184=T pbc="F F F"
O        0.11640000       1.17490000      -0.62700000
C        0.01330000      -0.21310000      -0.40620000
C       -1.31400000      -0.54440000       0.28540000
N       -2.43450000       0.00240000      -0.52930000
C       -2.86580000      -1.03500000      -1.48240000
C       -2.21840000      -2.33030000      -0.99870000
O       -2.10590000      -3.37720000      -1.58420000
C       -1.59700000      -2.05420000       0.36910000
O       -0.49670000      -2.87900000       0.62360000
H       -0.75620000       1.44060000      -0.95140000
H        0.09460000      -0.78220000      -1.34990000
H        0.85040000      -0.52290000       0.22400000
H       -1.32720000      -0.05610000       1.26240000
H       -3.20190000       0.27280000       0.07170000
H       -3.95520000      -1.13280000      -1.52690000
H       -2.52290000      -0.82770000      -2.50340000
H       -2.39800000      -2.21160000       1.11680000
H       -0.57920000      -3.62910000       0.01470000
