17
Properties=species:S:1:pos:R:3 gdb_51015=T pbc="F F F"
O       -0.79760000       1.89960000       1.45060000
C       -0.42400000       1.75330000       0.31600000
C        1.04010000       1.75400000      -0.09630000
C        1.30510000       2.67080000      -1.27700000
C        1.36550000       4.15540000      -1.08490000
C        2.62230000       3.38670000      -1.43280000
O        0.62650000       2.26250000      -2.46000000
C        1.22990000       1.32300000      -3.22640000
O        0.71530000       0.87000000      -4.20250000
H       -1.14350000       1.60510000      -0.51710000
H        1.63920000       2.05070000       0.76830000
H        1.32000000       0.72430000      -0.36200000
H        0.92230000       4.76530000      -1.86290000
H        1.25030000       4.53960000      -0.07780000
H        3.37740000       3.23950000      -0.66890000
H        3.01310000       3.50590000      -2.43690000
H        2.23260000       1.04440000      -2.85370000
