19
Properties=species:S:1:pos:R:3 gdb_81056=T pbc="F F F"
C       -0.04110000       1.77350000       0.45160000
N        0.11030000       0.34270000       0.18540000
C       -0.96020000      -0.60380000       0.71550000
C        0.08550000      -1.72990000       0.53710000
C        0.78710000      -0.52870000       1.24370000
C       -0.44660000      -0.43080000       2.17740000
C        2.25110000      -0.40950000       1.57830000
N        2.98800000       0.09300000       0.54700000
O        2.70890000      -0.73800000       2.65490000
H        0.93230000       2.25780000       0.32410000
H       -0.72120000       2.18850000      -0.29950000
H       -0.42550000       2.04870000       1.44380000
H       -1.98450000      -0.56750000       0.34190000
H       -0.04380000      -2.63340000       1.13300000
H        0.40500000      -1.92040000      -0.48770000
H       -0.62370000       0.52220000       2.67320000
H       -0.60950000      -1.26210000       2.86560000
H        2.55500000       0.24740000      -0.34910000
H        3.99120000       0.11230000       0.62990000
