21
Properties=species:S:1:pos:R:3 gdb_115882=T pbc="F F F"
C        0.01960000       1.36060000      -0.12030000
O       -0.00250000      -0.01440000       0.18780000
C       -1.28960000      -0.60260000       0.10720000
C       -1.81980000      -0.83230000      -1.32750000
C       -2.72960000      -2.07960000      -1.21860000
C       -2.14480000      -2.88500000      -0.06410000
C       -0.64130000      -3.09900000      -0.06030000
C       -1.25930000      -1.97910000       0.74090000
O       -1.25570000      -2.03880000       2.13320000
H        1.03960000       1.71570000       0.04740000
H       -0.25170000       1.55790000      -1.16790000
H       -0.66590000       1.93270000       0.52520000
H       -2.00240000       0.01070000       0.68470000
H       -2.35000000       0.03410000      -1.73010000
H       -0.96470000      -1.02300000      -1.98420000
H       -3.75560000      -1.78320000      -0.97120000
H       -2.77510000      -2.64100000      -2.15800000
H       -2.75910000      -3.62570000       0.43510000
H       -0.28710000      -3.93740000       0.52880000
H       -0.05370000      -2.88510000      -0.94680000
H       -0.40330000      -1.69420000       2.42390000
