15
Properties=species:S:1:pos:R:3 gdb_129978=T pbc="F F F"
N       -0.14650000       1.33560000       0.00480000
C       -0.05690000      -0.03980000      -0.00390000
N       -1.06800000      -0.88150000      -0.12370000
C       -0.46470000      -2.10510000       0.01360000
C       -1.22980000      -3.38430000      -0.07870000
C       -1.86520000      -3.58430000      -1.44990000
O       -1.94890000      -4.64830000      -2.00370000
N        0.84080000      -2.07220000       0.19660000
N        1.09170000      -0.72440000       0.18780000
H        0.61360000       1.82500000      -0.44620000
H       -1.04750000       1.65110000      -0.32670000
H       -0.59500000      -4.24040000       0.15420000
H       -2.05840000      -3.35810000       0.64360000
H       -2.27090000      -2.65400000      -1.90330000
H        2.02020000      -0.38610000       0.37470000
