15
Properties=species:S:1:pos:R:3 gdb_128934=T pbc="F F F"
N       -0.08590000      -1.14560000       0.07950000
C       -0.03160000       0.00720000       0.03980000
C        0.04130000       1.46740000      -0.03980000
N        1.40200000       1.92610000       0.19120000
C        1.61260000       3.30910000       0.07510000
C        2.82950000       3.96400000      -0.00730000
N        2.53590000       5.29120000      -0.04820000
N        1.22640000       5.55150000       0.00480000
C        0.65160000       4.34990000       0.07670000
H       -0.37650000       1.78200000      -1.01230000
H       -0.61460000       1.88640000       0.73320000
H        2.07590000       1.37870000      -0.32700000
H        3.84220000       3.59600000      -0.03430000
H        3.18410000       6.05730000      -0.11310000
H       -0.42390000       4.27820000       0.13080000
