21
Properties=species:S:1:pos:R:3 gdb_82735=T pbc="F F F"
C       -0.08320000       1.55210000       0.01460000
C        0.06810000       0.03090000      -0.02820000
C        0.97730000      -0.54580000      -1.12810000
C        2.37960000      -0.04010000      -0.70020000
C        2.16480000      -1.01080000       0.47690000
C        1.42770000      -1.96750000      -0.50510000
C        0.45280000      -2.72760000       0.34520000
C        0.16270000      -1.96550000       1.40690000
C        0.83380000      -0.61920000       1.20470000
H        0.86340000       2.07380000       0.17750000
H       -0.51540000       1.93120000      -0.91850000
H       -0.75640000       1.84000000       0.82970000
H       -0.93450000      -0.40210000      -0.09500000
H        0.62640000      -0.47660000      -2.15810000
H        3.16880000      -0.39820000      -1.36710000
H        2.52650000       1.02400000      -0.50730000
H        2.97690000      -1.37030000       1.11170000
H        2.05650000      -2.53380000      -1.19300000
H        0.04530000      -3.70280000       0.10900000
H       -0.54570000      -2.18420000       2.19710000
H        0.91330000       0.02620000       2.08060000
