17
Properties=species:S:1:pos:R:3 gdb_68212=T pbc="F F F"
C        0.03930000       1.53450000       0.04920000
C        0.01030000       0.03470000      -0.02300000
C        0.64020000      -0.82650000      -1.17230000
C        0.65090000      -1.81390000       0.02680000
O        0.92080000      -0.66690000       0.89720000
C       -0.85730000      -2.01800000       0.26580000
C       -1.58230000      -3.26660000       0.44740000
O       -1.07380000      -4.36530000       0.37750000
C       -1.29630000      -0.74920000       0.23150000
H        1.04820000       1.90890000      -0.14030000
H       -0.63810000       1.96580000      -0.69460000
H       -0.27480000       1.87700000       1.04010000
H        0.03640000      -1.06620000      -2.05020000
H        1.63930000      -0.47590000      -1.44130000
H        1.33120000      -2.65420000       0.13700000
H       -2.66780000      -3.14510000       0.65810000
H       -2.29550000      -0.34820000       0.33790000
