21
Properties=species:S:1:pos:R:3 gdb_116811=T pbc="F F F"
C        0.01050000       1.35560000       0.01120000
O        0.12000000      -0.06000000      -0.06640000
C        0.62150000      -0.66530000       1.02820000
N        0.76450000      -1.91400000       1.06420000
C        1.30390000      -2.49300000       2.27860000
C        0.32480000      -3.52080000       2.85420000
N        0.90960000      -4.18910000       4.00960000
C        0.65190000      -3.58020000       5.31130000
C       -0.02290000      -4.84670000       4.91560000
H        0.99060000       1.82830000       0.14970000
H       -0.41190000       1.68370000      -0.93920000
H       -0.65720000       1.66430000       0.82510000
H        0.88450000       0.02150000       1.84940000
H        2.23920000      -3.01330000       2.04070000
H        1.53850000      -1.73600000       3.04790000
H       -0.63110000      -3.02020000       3.09620000
H        0.10990000      -4.27300000       2.08780000
H        1.48020000      -3.58930000       6.01410000
H        0.03750000      -2.68090000       5.34160000
H       -1.08570000      -4.79020000       4.68390000
H        0.30390000      -5.79940000       5.32260000
