19
Properties=species:S:1:pos:R:3 gdb_74420=T pbc="F F F"
C        0.04020000       1.51650000      -0.03880000
C       -0.01940000       0.02570000       0.02100000
C       -1.08020000      -0.78930000       0.12940000
C       -0.71560000      -2.24570000       0.09120000
C       -1.46550000      -3.22930000       0.95810000
C       -0.12760000      -2.66300000      -1.24040000
C        0.78180000      -2.25200000      -0.08430000
C        1.22340000      -0.80840000      -0.06490000
O        2.35950000      -0.39150000      -0.09220000
H        0.69040000       1.90680000       0.75150000
H        0.47720000       1.85110000      -0.98660000
H       -0.95010000       1.96690000       0.06580000
H       -2.11510000      -0.46610000       0.19510000
H       -2.52690000      -3.26450000       0.68640000
H       -1.06030000      -4.23910000       0.84500000
H       -1.39980000      -2.95620000       2.01660000
H       -0.13170000      -3.72050000      -1.48860000
H       -0.22720000      -1.99460000      -2.08890000
H        1.42750000      -3.00260000       0.35380000
