21
Properties=species:S:1:pos:R:3 gdb_103739=T pbc="F F F"
C        0.01720000       1.24480000      -0.32860000
O       -0.14520000      -0.00390000       0.32000000
C       -1.39640000      -0.60530000       0.13360000
C       -2.51800000       0.04720000       0.91070000
C       -1.64300000      -1.25800000      -1.18970000
C       -1.28730000      -2.14420000       0.00100000
C        0.08090000      -2.79410000       0.08100000
C       -2.39260000      -2.96840000       0.56450000
O       -3.57400000      -2.80630000       0.36010000
H        1.06040000       1.53650000      -0.18800000
H       -0.19420000       1.17360000      -1.40450000
H       -0.62590000       2.02330000       0.10290000
H       -2.69610000       1.06230000       0.54030000
H       -3.44600000      -0.51430000       0.80750000
H       -2.25500000       0.11450000       1.97110000
H       -2.66720000      -1.33120000      -1.54060000
H       -0.88310000      -1.15660000      -1.95710000
H        0.86210000      -2.08760000      -0.19710000
H        0.29160000      -3.13730000       1.10030000
H        0.14010000      -3.66310000      -0.58350000
H       -2.04500000      -3.79800000       1.22120000
