18
Properties=species:S:1:pos:R:3 gdb_35232=T pbc="F F F"
C       -0.19100000      -1.19670000       0.02060000
C       -0.09280000       0.00130000       0.05460000
C        0.02740000       1.43240000       0.04820000
N        0.64640000       2.08490000       1.23300000
C        1.35050000       2.12640000      -0.04580000
C        2.69470000       1.41000000      -0.15720000
C        3.42050000       2.23960000      -1.22720000
O        2.89270000       3.55800000      -1.10000000
C        1.50420000       3.41250000      -0.86990000
H       -0.28150000      -2.25470000       0.00710000
H       -0.81070000       1.95070000      -0.41660000
H        0.17100000       2.96750000       1.41230000
H        3.21140000       1.46770000       0.80450000
H        2.58640000       0.35680000      -0.42580000
H        4.50180000       2.29920000      -1.08630000
H        3.22140000       1.84280000      -2.23610000
H        0.95600000       3.32840000      -1.82350000
H        1.14690000       4.30500000      -0.34490000
