18
Properties=species:S:1:pos:R:3 gdb_67338=T pbc="F F F"
C       -0.08540000       1.54870000       0.02540000
C       -0.01580000       0.04340000       0.03260000
C        1.09180000      -0.79440000      -0.73460000
C        2.09390000      -0.52170000       0.41060000
C        0.75560000      -0.80110000       1.13220000
C        0.48230000      -1.93890000       0.11520000
O       -0.92430000      -2.03980000      -0.13850000
C       -1.29450000      -0.71670000      -0.20040000
N       -2.45070000      -0.25890000      -0.40690000
H        0.89050000       2.00770000       0.20450000
H       -0.46460000       1.90520000      -0.93660000
H       -0.77940000       1.89890000       0.79490000
H        1.26840000      -0.79570000      -1.81100000
H        2.88910000      -1.25960000       0.55110000
H        2.49080000       0.49130000       0.48570000
H        0.54550000      -0.81010000       2.20250000
H        0.93620000      -2.92420000       0.19340000
H       -3.12490000      -1.01650000      -0.53100000
