16
Properties=species:S:1:pos:R:3 gdb_36010=T pbc="F F F"
C       -0.25420000      -1.10580000      -0.13890000
C       -0.12420000       0.08740000      -0.09430000
C        0.06500000       1.52830000      -0.02910000
C        1.56330000       1.94970000       0.01980000
C        2.26580000       1.54180000      -1.19930000
N        2.83360000       1.23370000      -2.15690000
C        1.66770000       3.45130000       0.26720000
C        2.61470000       4.33750000      -0.41700000
O        1.22940000       4.29970000      -0.78470000
H       -0.37860000      -2.15920000      -0.19090000
H       -0.40240000       2.02090000      -0.88830000
H       -0.42240000       1.92950000       0.86790000
H        2.03800000       1.43230000       0.86260000
H        1.31220000       3.73890000       1.25840000
H        2.93800000       5.25080000       0.07910000
H        3.29920000       3.92740000      -1.15530000
