20
Properties=species:S:1:pos:R:3 gdb_11471=T pbc="F F F"
C       -0.00040000       1.57460000       0.09880000
C        0.03850000       0.04460000       0.08000000
C       -1.34450000      -0.58800000       0.09360000
C       -1.36960000      -2.13310000       0.10280000
O       -2.39940000      -2.47330000       1.02340000
C       -2.99510000      -1.26250000       1.46930000
C       -3.40740000      -1.37680000       2.91930000
O       -2.01930000      -0.26240000       1.30590000
H        1.01030000       1.99330000       0.10740000
H       -0.51810000       1.96810000      -0.78300000
H       -0.52850000       1.93440000       0.98560000
H        0.56700000      -0.30940000      -0.81440000
H        0.59380000      -0.33130000       0.94780000
H       -1.93460000      -0.21380000      -0.76060000
H       -1.58450000      -2.54700000      -0.89020000
H       -0.41960000      -2.55200000       0.45820000
H       -3.86720000      -1.03490000       0.82570000
H       -2.52910000      -1.58380000       3.53540000
H       -3.87130000      -0.44470000       3.25230000
H       -4.12760000      -2.19020000       3.03650000
