12
Properties=species:S:1:pos:R:3 gdb_4625=T pbc="F F F"
N       -0.10710000       1.29720000      -0.01250000
C       -0.02880000       0.03560000      -0.01360000
N       -1.06940000      -0.86470000      -0.01820000
C       -0.57540000      -2.17740000      -0.01760000
C        0.76700000      -2.06170000      -0.01280000
O        1.12840000      -0.73790000      -0.01030000
C       -1.39650000      -3.31850000      -0.02150000
C       -2.12370000      -4.27830000      -0.02500000
H        0.81640000       1.72030000      -0.00880000
H       -2.03470000      -0.58980000      -0.02100000
H        1.55540000      -2.79260000      -0.01090000
H       -2.75410000      -5.13310000      -0.02820000
