17
Properties=species:S:1:pos:R:3 gdb_72014=T pbc="F F F"
O       -0.01230000       1.42080000      -0.10190000
C        0.02800000       0.03770000      -0.09710000
C        0.43730000      -0.83890000      -1.29240000
C       -0.34800000      -1.92700000      -0.51190000
C        0.56660000      -2.14880000       0.72010000
C        0.41370000      -0.71150000       1.26690000
C       -1.10210000      -0.70290000       1.54910000
O       -1.79230000      -0.51730000       2.50690000
C       -1.30960000      -0.79130000       0.04610000
H        0.85500000       1.75920000       0.14540000
H       -0.08200000      -0.51150000      -2.19640000
H        1.49580000      -1.01850000      -1.50870000
H       -0.75860000      -2.79950000      -1.01510000
H        0.20360000      -2.90550000       1.42240000
H        1.58960000      -2.40460000       0.43020000
H        1.14310000      -0.31410000       1.97050000
H       -2.22730000      -0.55790000      -0.48730000
