21
Properties=species:S:1:pos:R:3 gdb_52604=T pbc="F F F"
C        0.07480000       1.48110000      -0.06980000
C        0.05460000       0.02560000      -0.03820000
C        0.04370000      -1.17680000       0.01010000
C        0.02280000      -2.64040000       0.01540000
C       -1.45040000      -3.13440000       0.06360000
C        0.70850000      -3.17100000      -1.26620000
C        0.71340000      -3.17320000       1.30470000
C        1.18990000      -4.61810000       1.30440000
O        0.84150000      -2.47770000       2.28130000
H        1.10070000       1.86340000      -0.11150000
H       -0.45940000       1.87050000      -0.94370000
H       -0.39860000       1.90260000       0.82380000
H       -1.98780000      -2.76620000      -0.81450000
H       -1.50170000      -4.22780000       0.06270000
H       -1.95310000      -2.75830000       0.95770000
H        1.75750000      -2.86490000      -1.30830000
H        0.65860000      -4.26170000      -1.32540000
H        0.20470000      -2.76060000      -2.14530000
H        2.09500000      -4.71100000       0.69390000
H        1.42420000      -4.90970000       2.32880000
H        0.44780000      -5.30140000       0.88220000
