19
Properties=species:S:1:pos:R:3 gdb_52927=T pbc="F F F"
C        0.01980000       1.37540000      -0.10060000
C        0.00920000      -0.07710000      -0.03400000
C        0.00300000      -1.28080000       0.01460000
C       -0.01370000      -2.70810000       0.09560000
C        0.80070000      -3.65280000       1.02380000
C        0.05720000      -4.51360000      -0.03110000
C        0.20400000      -5.96520000      -0.35710000
C       -1.22540000      -3.67530000       0.21120000
O        0.46120000      -3.52080000      -1.06600000
H        0.65640000       1.80560000       0.68030000
H        0.40290000       1.71810000      -1.06810000
H       -0.98770000       1.78750000       0.02280000
H        1.88220000      -3.59320000       0.89600000
H        0.49170000      -3.72800000       2.06970000
H       -0.12730000      -6.57970000       0.48600000
H       -0.39880000      -6.22470000      -1.23270000
H        1.24950000      -6.20640000      -0.57160000
H       -1.72330000      -3.75250000       1.18130000
H       -1.91990000      -3.63530000      -0.62880000
