20
Properties=species:S:1:pos:R:3 gdb_94651=T pbc="F F F"
C       -0.20740000       1.56320000      -0.28500000
C       -0.05120000       0.08280000       0.03490000
C        1.15090000      -0.68060000      -0.56420000
O        1.54550000      -1.17680000       0.73390000
C        0.53360000      -0.37660000       1.40020000
C        1.18720000       0.65060000       2.31520000
N        2.02500000      -0.03040000       3.28540000
C        1.91010000       0.14470000       4.62700000
O        1.13960000       0.90780000       5.17210000
H        0.72560000       2.11710000      -0.14330000
H       -0.51240000       1.69580000      -1.32840000
H       -0.97450000       2.02850000       0.34260000
H       -0.99220000      -0.43530000      -0.16710000
H        0.92250000      -1.49560000      -1.26010000
H        1.92480000      -0.04030000      -1.00950000
H       -0.12890000      -1.01710000       1.99570000
H        1.78920000       1.35480000       1.72860000
H        0.44150000       1.22050000       2.87520000
H        2.67110000      -0.71700000       2.92720000
H        2.61870000      -0.49890000       5.18490000
