19
Properties=species:S:1:pos:R:3 gdb_79747=T pbc="F F F"
C       -0.25030000       1.52460000       0.22680000
C        0.02970000       0.05630000      -0.02200000
C        0.59430000      -0.59750000      -1.28810000
C        1.43420000       0.16690000      -2.27940000
O        1.68800000       1.54910000      -1.97720000
C        2.69290000       0.58690000      -1.63650000
C        2.68410000       0.12510000      -0.18540000
C        1.36210000      -0.64220000       0.02060000
O        1.45980000      -1.85450000       0.71530000
H       -1.13030000       1.84920000      -0.33900000
H       -0.46700000       1.68360000       1.28970000
H        0.57800000       2.16500000      -0.06640000
H       -0.73770000      -0.59090000       0.40210000
H        0.08680000      -1.48370000      -1.65150000
H        1.35350000      -0.06040000      -3.33860000
H        3.63500000       0.70320000      -2.16690000
H        3.50020000      -0.58590000      -0.02250000
H        2.82390000       0.95970000       0.51020000
H        1.32380000      -1.67430000       1.65160000
