17
Properties=species:S:1:pos:R:3 gdb_85068=T pbc="F F F"
O        0.18680000       1.36870000      -0.21450000
C        0.02730000      -0.02520000      -0.13950000
C        0.81820000      -0.69810000       1.02020000
C       -0.14090000      -1.71480000       1.61090000
O       -0.08410000      -2.28350000       2.67350000
C       -1.35600000      -1.84170000       0.68480000
O       -2.50570000      -2.21790000       1.39940000
C       -1.45010000      -0.43190000       0.09620000
O       -1.95860000       0.44310000       1.09020000
H       -0.39850000       1.74210000       0.45810000
H        0.36010000      -0.42820000      -1.10160000
H        1.74390000      -1.17560000       0.68540000
H        1.09360000       0.03030000       1.78820000
H       -1.11920000      -2.56630000      -0.11340000
H       -2.17590000      -2.60220000       2.22810000
H       -2.04850000      -0.37470000      -0.82120000
H       -2.63330000      -0.05870000       1.56890000
