17
Properties=species:S:1:pos:R:3 gdb_70882=T pbc="F F F"
C        0.06560000       1.57570000       0.07000000
C       -0.05730000       0.08970000      -0.05020000
C        0.40130000      -0.71840000      -1.30020000
C       -0.53350000      -1.80650000      -0.77810000
O       -0.99110000      -2.93990000      -1.40810000
C       -0.41810000      -1.69060000       0.78250000
O        0.52110000      -0.66130000       1.06550000
C       -1.37130000      -0.83160000       0.01090000
O       -2.71610000      -0.59580000      -0.00910000
H        1.12070000       1.87070000       0.06280000
H       -0.43560000       2.06970000      -0.76730000
H       -0.38060000       1.93000000       1.00400000
H        0.02290000      -0.28180000      -2.22820000
H        1.47580000      -0.91780000      -1.36800000
H       -0.30950000      -3.61900000      -1.34980000
H       -0.54040000      -2.52710000       1.45860000
H       -2.98900000      -0.29400000       0.86530000
