19
Properties=species:S:1:pos:R:3 gdb_100412=T pbc="F F F"
C       -0.30530000       1.11130000       0.07780000
O        0.10870000      -0.24470000      -0.08530000
C        0.71850000      -0.54180000      -1.25140000
N        0.94910000      -1.90210000      -1.32230000
N        0.96770000       0.34800000      -2.12660000
C        1.58180000      -0.05540000      -3.35980000
C        1.73560000       1.04520000      -4.43040000
O        3.14020000       0.75000000      -4.59780000
C        3.13670000      -0.10850000      -3.44470000
H        0.55340000       1.78680000       0.04440000
H       -1.00490000       1.40130000      -0.71050000
H       -0.78900000       1.15320000       1.05470000
H        0.87320000      -2.39170000      -0.44390000
H        1.72350000      -2.19450000      -1.89510000
H        1.12550000      -0.96360000      -3.77930000
H        1.17780000       0.92640000      -5.36590000
H        1.56820000       2.04990000      -4.02230000
H        3.62430000       0.35570000      -2.57620000
H        3.60710000      -1.07840000      -3.65290000
