16
Properties=species:S:1:pos:R:3 gdb_25655=T pbc="F F F"
C       -0.17490000       1.41120000      -0.01400000
C       -0.04710000      -0.03660000      -0.00370000
C        0.05840000      -1.24040000       0.00270000
C        0.19240000      -2.63410000       0.01370000
C        1.25350000      -3.47940000       0.17540000
C        0.75770000      -4.81510000       0.09480000
C       -0.58890000      -4.69320000      -0.11650000
N       -1.59880000      -5.60880000      -0.35180000
O       -0.95790000      -3.39870000      -0.16990000
H        0.45670000       1.86670000      -0.78580000
H       -1.20970000       1.70740000      -0.21930000
H        0.10850000       1.85040000       0.94980000
H        2.27440000      -3.17200000       0.33840000
H        1.31630000      -5.73310000       0.17860000
H       -1.40940000      -6.52250000       0.03480000
H       -2.51100000      -5.27180000      -0.07330000
