19
Properties=species:S:1:pos:R:3 gdb_36511=T pbc="F F F"
C       -0.04230000      -1.23330000      -0.01330000
C       -0.01640000      -0.03240000      -0.03990000
C        0.01340000       1.42420000      -0.04780000
C        1.43950000       2.00850000       0.00480000
O        2.09280000       1.59960000      -1.18280000
C        3.31230000       2.28420000      -1.41380000
C        3.06450000       3.77200000      -1.67220000
C        2.13110000       4.31560000      -0.62300000
C        1.41260000       3.50970000       0.15520000
H       -0.06470000      -2.29450000      -0.00040000
H       -0.47580000       1.81000000      -0.94990000
H       -0.55080000       1.80820000       0.81110000
H        1.95200000       1.56650000       0.87950000
H        3.98670000       2.16420000      -0.55030000
H        3.77670000       1.79610000      -2.27500000
H        4.01680000       4.31730000      -1.65800000
H        2.63980000       3.91900000      -2.67450000
H        2.06860000       5.39400000      -0.50270000
H        0.77410000       3.90720000       0.94030000
