20
Properties=species:S:1:pos:R:3 gdb_94886=T pbc="F F F"
O        0.05650000       1.45490000       0.00480000
C        0.06180000       0.02960000       0.02300000
C        0.66220000      -0.52850000       1.35490000
C       -0.50870000      -0.54770000       2.38880000
C       -1.72760000      -0.72260000       1.51430000
C       -3.07690000       0.01200000       1.39510000
C       -2.71060000       0.35980000      -0.09760000
C       -1.38560000      -0.39570000       0.10380000
N       -1.71870000      -1.78000000       0.48190000
H        0.96640000       1.75230000      -0.08940000
H        0.60580000      -0.35760000      -0.85220000
H        1.07110000      -1.53330000       1.20030000
H        1.49750000       0.09540000       1.68660000
H       -0.36690000      -1.31910000       3.15380000
H       -0.57240000       0.41600000       2.90540000
H       -3.96540000      -0.60270000       1.55650000
H       -3.12930000       0.90180000       2.02660000
H       -3.36750000      -0.04150000      -0.87260000
H       -2.55860000       1.42790000      -0.25210000
H       -0.86450000      -2.32490000       0.56760000
