22
Properties=species:S:1:pos:R:3 gdb_99972=T pbc="F F F"
C       -0.04320000       1.56350000       0.14940000
C       -0.00040000       0.03090000      -0.03800000
C       -1.36860000      -0.49680000       0.03690000
N       -2.45270000      -0.89400000       0.09720000
C        0.71890000      -0.49230000      -1.33020000
C        0.76570000      -2.03150000      -1.27920000
C       -0.00630000      -0.03670000      -2.60820000
C        2.16070000       0.05130000      -1.32940000
O        2.85950000      -0.53110000      -2.41870000
H        0.96520000       1.97190000       0.24300000
H       -0.54350000       2.05630000      -0.68720000
H       -0.59190000       1.81320000       1.06100000
H        0.53770000      -0.39490000       0.82000000
H       -0.24250000      -2.45460000      -1.28650000
H        1.31330000      -2.41940000      -2.13950000
H        1.27310000      -2.38120000      -0.37260000
H       -0.05380000       1.05440000      -2.68380000
H        0.53260000      -0.40380000      -3.48420000
H       -1.02840000      -0.42460000      -2.64100000
H        2.15150000       1.14640000      -1.42310000
H        2.64630000      -0.19930000      -0.37080000
H        3.72960000      -0.12610000      -2.47050000
