17
Properties=species:S:1:pos:R:3 gdb_35727=T pbc="F F F"
N       -0.01140000      -1.22840000      -0.02550000
C        0.01000000      -0.07680000       0.06700000
C        0.01400000       1.38530000       0.17480000
O        0.02800000       1.83740000       1.54010000
C        1.30240000       2.49900000       1.37300000
C        1.35780000       2.13130000      -0.12610000
C        2.53350000       1.36500000      -0.67900000
C        3.90640000       1.63820000      -0.17790000
N        3.25850000       0.34720000       0.08690000
H       -0.85560000       1.77260000      -0.36910000
H        1.23950000       3.56730000       1.60190000
H        2.07470000       2.04490000       2.00640000
H        1.16950000       2.99500000      -0.76870000
H        2.41850000       1.09930000      -1.72850000
H        4.75370000       1.59900000      -0.85610000
H        4.01610000       2.35060000       0.63710000
H        2.92550000       0.28910000       1.04620000
