16
Properties=species:S:1:pos:R:3 gdb_10423=T pbc="F F F"
O        0.01580000       1.28810000       0.36380000
C       -0.04310000      -0.05730000      -0.04080000
C       -1.50050000      -0.51960000      -0.17790000
C       -1.72960000      -2.05080000      -0.03460000
C       -2.33540000      -1.69900000       1.33630000
O       -2.16710000      -0.28000000       1.10440000
C       -2.18860000       0.13520000      -1.28050000
C       -2.75340000       0.64400000      -2.21140000
H       -0.57210000       1.35920000       1.12720000
H        0.47580000      -0.13940000      -1.00100000
H        0.45820000      -0.72380000       0.68080000
H       -2.43160000      -2.46420000      -0.75710000
H       -0.81710000      -2.64960000      -0.02270000
H       -3.38990000      -1.95920000       1.47520000
H       -1.76540000      -2.03910000       2.20850000
H       -3.25040000       1.10870000      -3.02700000
