12
Properties=species:S:1:pos:R:3 gdb_133295=T pbc="F F F"
C       -0.01030000       1.44260000      -0.01990000
N       -0.08170000      -0.00800000      -0.05140000
C        0.46540000      -0.65440000      -0.97340000
O        1.13900000       0.00690000      -2.02940000
N        1.92270000      -0.69800000      -2.95200000
N        1.92410000      -1.93550000      -2.91960000
C        1.11880000      -2.57340000      -1.95480000
F        1.14870000      -3.87000000      -2.10060000
N        0.43670000      -2.04210000      -1.03650000
H        0.95770000       1.83760000      -0.34880000
H       -0.78300000       1.87260000      -0.66950000
H       -0.20910000       1.77880000       0.99990000
