20
Properties=species:S:1:pos:R:3 gdb_116263=T pbc="F F F"
O       -0.23750000       1.55270000       0.06540000
C       -0.00260000       0.15390000       0.14530000
C       -1.34380000      -0.53870000      -0.04440000
C       -2.00090000      -0.32530000      -1.41710000
C       -3.10800000      -1.40150000      -1.49680000
C       -2.70350000      -2.51380000      -0.48580000
C       -1.32240000      -2.08510000       0.09490000
C       -0.21690000      -2.68860000      -0.65540000
N        0.65160000      -3.16750000      -1.25060000
H        0.61180000       2.00230000       0.09510000
H        0.70040000      -0.18070000      -0.63200000
H        0.42890000      -0.12190000       1.12150000
H       -2.02260000      -0.16860000       0.73490000
H       -2.37610000       0.69200000      -1.53800000
H       -1.25170000      -0.49060000      -2.20070000
H       -4.07940000      -0.98140000      -1.22080000
H       -3.21300000      -1.79510000      -2.51050000
H       -3.42000000      -2.56930000       0.33810000
H       -2.65680000      -3.50610000      -0.93810000
H       -1.21270000      -2.39580000       1.13870000
