12
Properties=species:S:1:pos:R:3 gdb_43438=T pbc="F F F"
O       -0.01550000      -0.05730000       0.00400000
C        0.00150000       1.14770000       0.00980000
N       -1.11710000       1.98660000       0.02970000
C       -0.76860000       3.33060000       0.03130000
O       -1.51510000       4.27230000       0.04650000
C        0.75570000       3.33930000       0.00950000
C        1.18060000       2.06310000      -0.00280000
C        1.48990000       4.53870000       0.00480000
C        2.10110000       5.57610000       0.00100000
H       -2.06870000       1.65500000       0.04160000
H        2.19510000       1.69340000      -0.01920000
H        2.63790000       6.49300000      -0.00240000
