17
Properties=species:S:1:pos:R:3 gdb_124240=T pbc="F F F"
C       -0.03810000       1.52880000      -0.14300000
C        0.03900000       0.01120000      -0.10220000
O        1.11020000      -0.56910000      -0.16880000
C       -1.22370000      -0.72260000       0.02010000
C       -1.35000000      -2.11370000       0.07270000
C       -0.33280000      -3.20150000       0.02550000
N       -2.67250000      -2.34630000       0.18450000
N       -3.43760000      -1.22590000       0.21070000
C       -2.55740000      -0.24310000       0.11090000
H        0.96860000       1.93730000      -0.23520000
H       -0.64820000       1.86190000      -0.98990000
H       -0.50940000       1.91610000       0.76700000
H       -0.80360000      -4.18700000       0.09340000
H        0.24670000      -3.14690000      -0.89980000
H        0.38510000      -3.09290000       0.84270000
H       -3.12580000      -3.24370000       0.24780000
H       -2.90210000       0.78090000       0.10680000
