17
Properties=species:S:1:pos:R:3 gdb_3267=T pbc="F F F"
C       -0.01110000       1.59780000      -0.05850000
C        1.48000000       1.93000000      -0.09740000
O        2.07830000       1.88550000       1.18380000
C        2.49270000       0.61270000       1.62450000
C        1.42580000      -0.42330000       1.88640000
C        0.26230000      -0.62580000       1.26730000
C       -0.34390000       0.10970000       0.09830000
H       -0.45130000       2.16840000       0.76740000
H       -0.47580000       1.96220000      -0.98370000
H        2.01370000       1.26530000      -0.79850000
H        1.61690000       2.95780000      -0.45120000
H        3.22800000       0.18850000       0.91320000
H        3.03870000       0.79900000       2.55590000
H        1.69970000      -1.12500000       2.67350000
H       -0.32650000      -1.47610000       1.60820000
H       -1.43410000      -0.00050000       0.14540000
H       -0.04650000      -0.41910000      -0.82190000
