16
Properties=species:S:1:pos:R:3 gdb_51354=T pbc="F F F"
O       -0.19350000      -0.06160000       0.37510000
C       -0.11590000       1.11870000       0.11170000
N        1.03750000       1.79170000      -0.16220000
C        2.33690000       1.16450000      -0.17170000
C        3.29690000       1.47470000      -1.34220000
C        3.77480000       2.81940000      -0.69260000
O        5.19040000       2.50200000      -0.78220000
C        4.54450000       1.24010000      -0.43560000
C        3.50740000       1.88300000       0.53630000
H       -0.99840000       1.78750000       0.06570000
H        0.96750000       2.77640000      -0.36710000
H        2.18810000       0.11310000       0.07340000
H        3.20590000       1.25300000      -2.40480000
H        3.46330000       3.84680000      -0.88100000
H        5.15540000       0.34800000      -0.31010000
H        3.65350000       2.12100000       1.58930000
