18
Properties=species:S:1:pos:R:3 gdb_53177=T pbc="F F F"
C        0.06940000       1.53980000      -0.05410000
C        0.07240000       0.08470000      -0.01950000
C        0.07950000      -1.11960000       0.00980000
C        0.05740000      -2.56580000       0.04330000
C        0.26730000      -3.27870000       1.38940000
N       -0.88150000      -2.90800000       2.24630000
C       -1.01490000      -4.02010000       1.27180000
C       -1.36660000      -3.31270000      -0.04470000
O       -2.52040000      -2.53900000      -0.05310000
H        1.01290000       1.93270000      -0.44950000
H       -0.73840000       1.91980000      -0.68960000
H       -0.07140000       1.96230000       0.94720000
H        0.72270000      -2.98740000      -0.71740000
H        1.20960000      -3.58700000       1.82440000
H       -0.73060000      -3.31770000       3.16630000
H       -1.28650000      -5.01680000       1.59670000
H       -1.40730000      -3.97900000      -0.90830000
H       -2.48840000      -2.01440000       0.75940000
