18
Properties=species:S:1:pos:R:3 gdb_133865=T pbc="F F F"
C       -1.19020000       1.21440000      -0.68110000
C       -1.76600000       0.02970000       0.14130000
C       -1.39300000      -1.35500000      -0.42310000
N       -0.04350000      -1.21360000       0.23900000
C        1.25780000      -1.20220000      -0.50930000
C        1.99130000       0.02720000      -0.27420000
O        1.37760000       1.23300000      -0.28690000
C        0.08300000       1.29410000       0.24170000
C       -0.39320000      -0.01120000       0.87630000
H       -1.78660000       2.12940000      -0.68350000
H       -0.93620000       0.95610000      -1.71160000
H       -2.72880000       0.17160000       0.62830000
H       -1.37840000      -1.43990000      -1.51430000
H       -1.94320000      -2.20620000      -0.01130000
H        0.94800000      -1.33050000      -1.55670000
H        1.87100000      -2.06960000      -0.24160000
H        3.05680000       0.07770000      -0.10600000
H        0.06190000       2.17770000       0.88410000
