16
Properties=species:S:1:pos:R:3 gdb_14829=T pbc="F F F"
C        0.16980000       1.37260000      -0.41700000
N        0.02100000      -0.04600000      -0.14850000
C       -1.06890000      -0.62840000       0.02600000
C       -1.38970000      -2.09050000       0.31300000
C       -2.88910000      -1.69060000       0.33500000
N       -2.47900000      -0.29940000       0.05460000
C       -3.29170000       0.79090000      -0.09330000
O       -2.95540000       1.93020000      -0.32320000
H        0.81480000       1.80390000       0.35730000
H        0.70630000       1.48920000      -1.36580000
H       -0.77130000       1.92760000      -0.45920000
H       -1.10340000      -2.77530000      -0.48670000
H       -0.99220000      -2.45690000       1.26080000
H       -3.50190000      -2.13080000      -0.45620000
H       -3.39090000      -1.80980000       1.29890000
H       -4.35370000       0.49610000       0.02790000
