13
Properties=species:S:1:pos:R:3 gdb_10581=T pbc="F F F"
N        0.16560000       1.40910000       0.01660000
C        0.04740000       0.00560000       0.06870000
C       -0.48370000      -0.68210000       1.26100000
C       -1.36790000      -0.74890000      -0.00110000
C       -2.51810000       0.10550000      -0.04210000
N       -3.39650000       0.85850000      -0.06220000
C       -1.43320000      -1.98440000      -0.72550000
N       -1.43130000      -2.98190000      -1.31210000
H        0.13080000       1.76410000      -0.93250000
H       -0.53610000       1.89080000       0.56720000
H        0.80040000      -0.52130000      -0.50810000
H       -0.03630000      -1.61860000       1.57200000
H       -0.87860000      -0.07690000       2.07020000
