16
Properties=species:S:1:pos:R:3 gdb_37544=T pbc="F F F"
C       -0.10570000       1.61160000      -0.04140000
C        1.40530000       1.30750000       0.01850000
C        1.21920000       0.12100000       1.00560000
C       -0.05280000       0.07170000       0.00850000
C        1.25300000      -0.00390000      -0.84360000
O        1.85360000      -0.14280000      -2.12000000
C        3.13220000      -0.50190000      -1.69790000
N        3.36160000      -0.82760000      -0.48350000
C        1.99680000      -0.88110000       0.10360000
H       -0.53150000       2.10460000       0.83740000
H       -0.49350000       2.06040000      -0.95970000
H        2.25270000       1.99020000      -0.00060000
H        1.13550000       0.18670000       2.08940000
H       -0.85630000      -0.66350000       0.04110000
H        3.86950000      -0.47360000      -2.49240000
H        1.69300000      -1.92820000       0.21870000
