19
Properties=species:S:1:pos:R:3 gdb_113017=T pbc="F F F"
C       -0.12440000       1.47910000      -0.37100000
C       -0.11560000      -0.05040000      -0.33730000
C       -1.44220000      -0.63340000       0.16760000
O       -2.53420000      -0.23890000      -0.68260000
C       -3.06970000      -1.35540000      -1.35220000
C       -2.76510000      -1.34100000      -2.85370000
O       -1.96550000      -0.61980000      -3.38420000
C       -2.42160000      -2.56030000      -0.70210000
C       -1.49840000      -2.13790000       0.15350000
H        0.82740000       1.86860000      -0.74350000
H       -0.92160000       1.83530000      -1.02810000
H       -0.29170000       1.89920000       0.62760000
H        0.07000000      -0.44610000      -1.34140000
H        0.68920000      -0.41580000       0.31430000
H       -1.64840000      -0.23040000       1.17180000
H       -4.16850000      -1.36430000      -1.24550000
H       -3.35450000      -2.09220000      -3.43200000
H       -2.67810000      -3.58230000      -0.94720000
H       -0.84800000      -2.75620000       0.75910000
