17
Properties=species:S:1:pos:R:3 gdb_38140=T pbc="F F F"
C        0.33270000       1.57680000       0.19920000
O        1.39640000       1.40440000      -0.76320000
C        1.29190000      -0.03260000      -0.68090000
C        2.44860000      -0.65360000       0.07000000
O        2.78730000      -0.04840000       1.31160000
C        2.19200000      -1.36340000       1.34260000
C        0.81270000      -1.44360000       1.88080000
C       -0.20010000      -0.76750000       1.33280000
C       -0.04120000       0.06960000       0.10830000
H        0.71860000       1.87780000       1.17870000
H       -0.42130000       2.29240000      -0.14630000
H        1.21960000      -0.48800000      -1.67620000
H        3.30670000      -0.95290000      -0.53280000
H        2.88400000      -2.14720000       1.64560000
H        0.65560000      -2.06460000       2.75740000
H       -1.19440000      -0.83640000       1.76670000
H       -0.90190000      -0.06380000      -0.55330000
