19
Properties=species:S:1:pos:R:3 gdb_112850=T pbc="F F F"
C        0.10670000       1.33860000       0.11290000
O       -0.10970000      -0.04220000      -0.07280000
C        0.55180000      -0.57900000      -1.19520000
C        2.08720000      -0.72540000      -1.05650000
C        2.47470000      -1.95000000      -1.92700000
O        3.62290000      -2.64380000      -1.48140000
C        1.21130000      -2.79660000      -1.93430000
O        0.69440000      -2.97820000      -0.60540000
C        0.08140000      -1.99760000      -1.45340000
H        1.15790000       1.56970000       0.33870000
H       -0.19110000       1.91900000      -0.77510000
H       -0.50900000       1.65010000       0.95990000
H        0.30830000       0.02260000      -2.08980000
H        2.63960000       0.17120000      -1.34200000
H        2.31200000      -0.94810000      -0.00960000
H        2.70420000      -1.63900000      -2.95290000
H        3.40670000      -3.01090000      -0.61570000
H        1.10850000      -3.64770000      -2.60210000
H       -0.95250000      -2.19380000      -1.72280000
