13
Properties=species:S:1:pos:R:3 gdb_1399=T pbc="F F F"
N       -0.09910000       1.49460000       0.06910000
C        0.00090000       0.03940000       0.02630000
C        0.68740000      -0.54470000      -1.25690000
C        0.01580000      -0.08640000      -2.46850000
N       -0.54290000       0.30870000      -3.40020000
C        0.71610000      -0.45920000       1.20050000
C        1.34220000      -0.88010000       2.13500000
H        0.82620000       1.91320000       0.07780000
H       -0.58310000       1.83230000      -0.75830000
H       -1.02390000      -0.35290000       0.04690000
H        1.73530000      -0.22730000      -1.28220000
H        0.67840000      -1.63910000      -1.22430000
H        1.87480000      -1.24640000       2.97810000
