15
Properties=species:S:1:pos:R:3 gdb_36020=T pbc="F F F"
C       -0.06110000      -1.22450000      -0.02810000
C       -0.04770000      -0.02410000      -0.00880000
C       -0.00130000       1.42980000       0.00360000
C        1.44930000       1.98730000       0.03810000
C        1.43160000       3.53490000      -0.08050000
C        2.76370000       4.11260000      -0.23390000
N        3.81770000       4.56360000      -0.37370000
C        2.14260000       1.56900000       1.25950000
N        2.67080000       1.25830000       2.23840000
H       -0.07950000      -2.28670000      -0.03360000
H       -0.49210000       1.82660000      -0.89350000
H       -0.55520000       1.81970000       0.86600000
H        1.99670000       1.57630000      -0.81650000
H        0.82940000       3.81340000      -0.95210000
H        0.94970000       3.97110000       0.80090000
