18
Properties=species:S:1:pos:R:3 gdb_8392=T pbc="F F F"
C       -0.00340000       1.47210000      -0.03980000
C        0.01020000      -0.04530000       0.00640000
O        0.01600000      -0.66050000       1.04980000
C        0.01610000      -0.76090000      -1.31440000
C        1.08870000      -0.66080000      -2.45360000
C        0.02370000      -1.67580000      -2.95780000
C        0.03070000      -2.29800000      -1.53050000
C       -1.05990000      -0.68150000      -2.45200000
H        0.87290000       1.84480000      -0.58190000
H       -0.88620000       1.82910000      -0.58180000
H       -0.00680000       1.87240000       0.97470000
H        1.15290000       0.29150000      -2.98720000
H        2.07870000      -1.05870000      -2.21550000
H        0.02810000      -2.20980000      -3.90810000
H        0.93920000      -2.82130000      -1.22380000
H       -0.86710000      -2.83870000      -1.22250000
H       -2.04170000      -1.09830000      -2.21240000
H       -1.14320000       0.26940000      -2.98550000
