20
Properties=species:S:1:pos:R:3 gdb_68402=T pbc="F F F"
C       -0.05010000       1.53830000       0.00530000
C        0.06230000       0.01570000      -0.01360000
O       -1.22840000      -0.55770000      -0.20650000
C        1.04670000      -0.58750000      -1.06110000
N        2.00000000      -1.38360000      -0.22090000
C        2.26210000      -0.38780000       0.88990000
C        0.75720000      -0.58930000       1.22990000
O        0.11030000      -0.23330000       2.41150000
C        1.02380000      -2.03740000       0.73530000
H        0.92300000       2.02680000       0.10510000
H       -0.51650000       1.88490000      -0.92130000
H       -0.67260000       1.86090000       0.84680000
H       -1.74180000      -0.35810000       0.58590000
H        0.52100000      -1.24080000      -1.76000000
H        1.59730000       0.17160000      -1.62200000
H        2.94130000      -0.82010000       1.63020000
H        2.62980000       0.58930000       0.56720000
H        0.50210000      -0.71850000       3.14430000
H        0.20630000      -2.58990000       0.27100000
H        1.56520000      -2.65820000       1.45490000
