15
Properties=species:S:1:pos:R:3 gdb_19649=T pbc="F F F"
O        0.04790000       1.33340000      -0.26070000
C       -0.00030000      -0.03470000       0.11040000
C       -1.38000000      -0.58350000       0.01290000
C       -2.28880000      -0.97940000      -1.12410000
C       -3.46680000      -0.41060000      -0.29670000
C       -3.18010000      -1.35640000       0.81240000
C       -1.99140000      -1.96140000       0.02400000
N       -2.54510000       0.01120000       0.81800000
H       -0.61630000       1.78590000       0.27240000
H        0.66690000      -0.57560000      -0.57020000
H        0.37960000      -0.18270000       1.13460000
H       -2.09420000      -1.08390000      -2.18170000
H       -4.35600000       0.15260000      -0.55270000
H       -3.78990000      -1.71460000       1.63320000
H       -1.53690000      -2.94110000      -0.01300000
