17
Properties=species:S:1:pos:R:3 gdb_112354=T pbc="F F F"
N        0.61110000       1.11610000       0.16890000
C        0.19750000      -0.17910000       0.04640000
C       -1.03510000      -0.72480000       0.12440000
C       -0.93600000      -2.18270000      -0.02540000
O       -1.79240000      -3.03500000       0.07730000
N        0.41030000      -2.44780000      -0.33780000
C        1.23520000      -1.26990000      -0.17700000
C        2.12300000      -1.01660000      -1.41020000
O        2.95280000       0.13340000      -1.25460000
H        1.50080000       1.33010000      -0.26260000
H       -0.09300000       1.83320000       0.08900000
H       -1.97550000      -0.21650000       0.27680000
H        0.76730000      -3.36410000      -0.11640000
H        1.88790000      -1.33650000       0.70980000
H        2.72240000      -1.91210000      -1.62180000
H        1.48870000      -0.82810000      -2.28050000
H        3.65330000      -0.08360000      -0.63050000
