27
Properties=species:S:1:pos:R:3 gdb_85937=T pbc="F F F"
C       -0.27070000       1.56270000      -0.00760000
C        0.00290000       0.06210000       0.08150000
C        0.74120000      -0.53280000      -1.12880000
C        1.21200000      -1.94730000      -0.68420000
C        0.21870000      -3.01830000      -1.16830000
C        2.60840000      -2.27230000      -1.23550000
C        1.20960000      -1.87300000       0.88350000
C        0.85420000      -0.42000000       1.28490000
C        2.10060000       0.43470000       1.55760000
H        0.65220000       2.13510000      -0.14780000
H       -0.92800000       1.78920000      -0.85400000
H       -0.76070000       1.93550000       0.89900000
H       -0.96740000      -0.44920000       0.16280000
H        0.11460000      -0.56940000      -2.02650000
H        1.60580000       0.09530000      -1.37790000
H        0.21530000      -3.08950000      -2.26200000
H        0.47830000      -4.00590000      -0.76990000
H       -0.80310000      -2.79000000      -0.84520000
H        3.35450000      -1.55430000      -0.87850000
H        2.93370000      -3.27230000      -0.92610000
H        2.61760000      -2.24560000      -2.33150000
H        0.45910000      -2.56350000       1.28310000
H        2.17160000      -2.18560000       1.30350000
H        0.24630000      -0.41530000       2.19760000
H        2.75520000       0.50400000       0.68190000
H        1.83620000       1.45430000       1.85440000
H        2.68980000      -0.00280000       2.37040000
