18
Properties=species:S:1:pos:R:3 gdb_50584=T pbc="F F F"
O       -0.51180000       0.64080000      -0.68610000
C        0.10850000       1.06820000       0.25310000
C        1.34650000       1.93600000       0.13890000
C        1.47180000       2.62910000      -1.21750000
O        2.71470000       3.31030000      -1.31010000
C        3.09200000       4.06080000      -0.19300000
C        2.23600000       5.14100000       0.40960000
C        2.46970000       3.83400000       1.16380000
N        1.39870000       2.86570000       1.26570000
H       -0.18630000       0.84570000       1.30360000
H        2.20400000       1.24850000       0.23850000
H        1.45650000       1.90580000      -2.03490000
H        0.62560000       3.31900000      -1.36270000
H        4.16130000       4.23710000      -0.23370000
H        2.72430000       6.04300000       0.76220000
H        1.24100000       5.29720000       0.00620000
H        3.12410000       3.87250000       2.03200000
H        0.50530000       3.33190000       1.38410000
