18
Properties=species:S:1:pos:R:3 gdb_68581=T pbc="F F F"
C       -0.10260000       1.40220000       0.02310000
C        0.08330000      -0.08090000       0.01170000
C        0.69840000      -0.99920000      -1.08180000
C        0.00840000      -1.87460000      -0.00930000
C       -0.29390000      -3.35430000      -0.05680000
C       -0.95200000      -3.83660000       1.15670000
N       -1.45800000      -4.21740000       2.12260000
C        0.65910000      -1.02220000       1.10500000
O       -1.13760000      -0.94400000      -0.02090000
H        0.86960000       1.90440000       0.04570000
H       -0.64120000       1.72840000      -0.87140000
H       -0.67260000       1.70920000       0.90480000
H        0.19240000      -0.96710000      -2.04810000
H        1.78750000      -1.04400000      -1.16580000
H       -0.93420000      -3.56180000      -0.92160000
H        0.63900000      -3.91130000      -0.19970000
H        1.74470000      -1.06920000       1.22470000
H        0.11960000      -1.01630000       2.05260000
