22
Properties=species:S:1:pos:R:3 gdb_81770=T pbc="F F F"
C       -0.15960000       1.50250000       0.10420000
C        0.11700000       0.03180000       0.02520000
N       -0.71610000      -0.94480000       0.77790000
C        0.75610000      -0.89210000       1.00200000
C        1.31040000      -1.78290000      -0.11350000
O        0.85900000      -3.10800000      -0.12520000
C        0.70140000      -0.75600000      -1.17550000
C       -0.29810000      -1.33070000      -2.17200000
C        1.82010000       0.01440000      -1.87600000
H        0.68420000       2.08650000      -0.27580000
H       -1.04370000       1.77270000      -0.48500000
H       -0.34080000       1.81340000       1.13930000
H       -1.16200000      -0.44550000       1.54620000
H        1.15510000      -0.70900000       1.99350000
H        2.40180000      -1.81150000      -0.16340000
H       -0.07220000      -3.06070000       0.13280000
H       -1.13980000      -1.80250000      -1.66090000
H       -0.69490000      -0.54430000      -2.82470000
H        0.18030000      -2.08370000      -2.80690000
H        2.36560000      -0.64460000      -2.56010000
H        1.42600000       0.85110000      -2.46420000
H        2.54230000       0.42090000      -1.15860000
