19
Properties=species:S:1:pos:R:3 gdb_85011=T pbc="F F F"
C       -0.25730000       1.51770000       0.03800000
C        0.08570000       0.02900000      -0.03520000
C        0.97830000      -0.40740000      -1.21180000
C        2.00680000      -1.34810000      -0.61140000
N        2.81230000      -2.05550000      -1.29070000
N        1.89700000      -1.25120000       0.77890000
C        2.77430000      -1.93220000       1.70730000
C        0.84700000      -0.44500000       1.20350000
O        0.59420000      -0.19510000       2.35900000
H        0.65040000       2.13030000       0.02230000
H       -0.88150000       1.81480000      -0.80960000
H       -0.79560000       1.73510000       0.96360000
H       -0.84910000      -0.54630000      -0.04220000
H        0.44010000      -0.90070000      -2.02260000
H        1.50350000       0.44910000      -1.64840000
H        3.43490000      -2.60500000      -0.69720000
H        2.69080000      -3.01920000       1.59950000
H        3.81660000      -1.64050000       1.54120000
H        2.46960000      -1.64270000       2.71360000
