18
Properties=species:S:1:pos:R:3 gdb_49562=T pbc="F F F"
O       -0.62060000       0.63790000       0.57590000
C        0.10480000       1.06490000      -0.28720000
C        1.26440000       2.00520000      -0.07680000
C        1.24950000       3.31070000      -0.90590000
C        0.15830000       4.23130000      -0.42720000
C        1.42550000       4.13280000       0.37560000
C        1.39800000       2.86250000       1.20230000
C        0.87030000       2.62350000       2.56230000
N        2.32820000       2.61100000       2.29270000
H       -0.05000000       0.77960000      -1.35500000
H        2.18970000       1.44480000      -0.27100000
H        1.73780000       3.43740000      -1.86330000
H        0.04030000       5.14090000      -1.00700000
H       -0.77180000       3.83180000      -0.03010000
H        2.08290000       4.97320000       0.55670000
H        0.53080000       3.46350000       3.16250000
H        0.36000000       1.68440000       2.74460000
H        2.66650000       1.65180000       2.25710000
