19
Properties=species:S:1:pos:R:3 gdb_37807=T pbc="F F F"
C        0.01690000       1.55700000      -0.06300000
C        1.48180000       1.94510000       0.05730000
C        2.16620000       0.66850000       0.49500000
O        1.22180000      -0.34480000       0.71460000
C        0.02350000       0.00590000       0.00350000
C        0.02250000      -0.68730000      -1.37110000
C        1.40290000      -0.64190000      -2.03070000
O        1.93540000       0.67470000      -2.09450000
C        2.40870000       1.21850000      -0.89770000
H       -0.54210000       1.97410000       0.78000000
H       -0.44580000       1.91460000      -0.98700000
H        1.73960000       2.92620000       0.43900000
H        2.98200000       0.61660000       1.20710000
H       -0.81460000      -0.36600000       0.59990000
H       -0.26320000      -1.73940000      -1.25220000
H       -0.72910000      -0.21750000      -2.01560000
H        2.09250000      -1.30210000      -1.49110000
H        1.34030000      -0.98630000      -3.06720000
H        3.38750000       1.67250000      -1.03830000
