18
Properties=species:S:1:pos:R:3 gdb_111475=T pbc="F F F"
C       -0.02830000       1.41390000       0.10330000
O        0.00030000       0.01510000      -0.13910000
C       -1.25780000      -0.61440000      -0.05250000
C       -1.21770000      -2.00480000      -0.65070000
C       -0.27240000      -3.01740000      -0.03460000
C       -1.71500000      -2.96360000       0.40110000
N       -2.01250000      -2.17050000       1.56100000
C       -1.68060000      -0.84640000       1.42880000
O       -1.67740000      -0.02050000       2.31570000
H        0.99370000       1.77360000      -0.03780000
H       -0.68720000       1.92440000      -0.61710000
H       -0.36610000       1.64250000       1.11810000
H       -2.02720000       0.00100000      -0.54660000
H       -1.50160000      -2.13190000      -1.68710000
H        0.03620000      -3.83960000      -0.67090000
H        0.48350000      -2.66230000       0.65680000
H       -2.40850000      -3.76390000       0.17110000
H       -2.09620000      -2.56770000       2.48510000
