23
Properties=species:S:1:pos:R:3 gdb_111974=T pbc="F F F"
C        0.04150000       1.61770000       0.12290000
C        0.07210000       0.08980000       0.01770000
C       -1.32580000      -0.53290000      -0.12250000
C       -2.04070000      -0.27420000      -1.43390000
C       -2.72550000      -1.33740000      -1.84700000
C       -2.59440000      -2.50240000      -0.89010000
C       -2.47210000      -3.87440000      -1.56060000
C       -1.36430000      -2.08260000      -0.02410000
O       -0.14030000      -2.58070000      -0.55090000
H        1.05120000       2.02310000       0.24200000
H       -0.39270000       2.08030000      -0.76990000
H       -0.55180000       1.94600000       0.98440000
H        0.69070000      -0.22020000      -0.82940000
H        0.55340000      -0.32550000       0.91120000
H       -1.94710000      -0.13560000       0.69720000
H       -2.01230000       0.68600000      -1.93680000
H       -3.33770000      -1.38650000      -2.74170000
H       -3.47700000      -2.52530000      -0.23110000
H       -1.61130000      -3.90430000      -2.23420000
H       -2.36460000      -4.67770000      -0.82140000
H       -3.36750000      -4.09650000      -2.14970000
H       -1.48000000      -2.41210000       1.01870000
H       -0.13870000      -3.53600000      -0.44300000
