18
Properties=species:S:1:pos:R:3 gdb_102043=T pbc="F F F"
C        0.22470000       1.33560000      -0.18040000
O        0.35800000      -0.08520000      -0.06870000
C        0.56250000      -0.56720000       1.16900000
N        0.64210000       0.20160000       2.17760000
C        0.65950000      -2.08480000       1.13890000
C        1.99880000      -2.57090000       1.73600000
O        2.04760000      -3.97570000       1.86630000
C       -0.49470000      -2.69980000       1.92710000
O       -1.30500000      -3.45160000       1.46020000
H        1.12780000       1.83710000       0.17730000
H        0.06770000       1.53210000      -1.24120000
H       -0.62500000       1.69000000       0.40880000
H        0.79670000      -0.31910000       3.03760000
H        0.56550000      -2.42350000       0.10390000
H        2.82710000      -2.17680000       1.12970000
H        2.12180000      -2.17510000       2.74950000
H        1.94990000      -4.36880000       0.99240000
H       -0.52970000      -2.39480000       2.99770000
