19
Properties=species:S:1:pos:R:3 gdb_57640=T pbc="F F F"
C        0.23010000       1.41930000       0.31190000
C       -0.11600000      -0.02740000      -0.05590000
O        0.39740000      -0.83850000       1.00390000
C       -1.64130000      -0.26220000      -0.23800000
C       -2.49190000       0.31690000       0.87430000
C       -3.53480000      -0.51100000       1.53280000
N       -2.32360000      -0.12290000       2.26850000
C        0.56570000      -0.40140000      -1.31830000
N        1.08310000      -0.73160000      -2.29770000
H        1.31330000       1.54070000       0.36740000
H       -0.16790000       2.11390000      -0.43190000
H       -0.20130000       1.64720000       1.28850000
H        0.40310000      -1.75670000       0.70950000
H       -1.95570000       0.16740000      -1.19610000
H       -1.79700000      -1.34530000      -0.31710000
H       -2.67850000       1.38550000       0.78810000
H       -4.45330000      -0.05060000       1.88560000
H       -3.64570000      -1.54150000       1.20310000
H       -1.65300000      -0.88590000       2.30110000
