18
Properties=species:S:1:pos:R:3 gdb_54108=T pbc="F F F"
N       -0.04780000       1.07320000      -0.01860000
H       -0.71300000       0.86760000      -0.75830000
H        0.55440000       0.26760000       0.08950000
H        0.29850000       2.92380000      -0.12170000
C       -0.72500000       1.44360000       1.22820000
C       -1.74280000       0.49030000       1.95300000
C       -0.54860000      -0.46800000       2.24020000
C       -0.01940000       0.96860000       2.55140000
C       -1.36750000       1.19480000       3.29420000
C       -1.10380000       2.93690000       1.09030000
O       -2.03700000       3.47140000       1.63080000
O       -0.27420000       3.61210000       0.28010000
H       -2.74030000       0.22580000       1.60070000
H       -0.66510000      -1.11880000       3.10940000
H       -0.11770000      -1.02530000       1.40650000
H        0.98180000       1.25510000       2.87810000
H       -1.71060000       2.21400000       3.43570000
H       -1.50090000       0.58300000       4.18890000
