17
Properties=species:S:1:pos:R:3 gdb_6870=T pbc="F F F"
C       -0.12310000       1.57100000      -0.01350000
C       -0.00950000       0.06020000      -0.01750000
C       -1.22780000      -0.67240000      -0.54560000
C        1.33120000      -0.56140000      -0.25760000
O        2.39960000       0.28980000      -0.49320000
C        0.72070000      -0.63030000       1.15080000
C        1.33430000       0.13020000       2.19660000
N        1.85170000       0.73040000       3.04080000
H        0.78860000       2.04670000       0.34750000
H       -0.31310000       1.93180000      -1.02990000
H       -0.95750000       1.88980000       0.61960000
H       -1.43940000      -0.36650000      -1.57600000
H       -1.08650000      -1.75780000      -0.54070000
H       -2.11150000      -0.44590000       0.06050000
H        1.36190000      -1.50850000      -0.79760000
H        3.16420000      -0.01860000       0.00600000
H        0.33030000      -1.59100000       1.47140000
