23
Properties=species:S:1:pos:R:3 gdb_109260=T pbc="F F F"
C        0.02120000       1.26860000      -0.27470000
C       -0.03780000      -0.21080000       0.14680000
C        0.71600000      -0.50290000       1.41330000
C        0.18900000      -0.87810000       2.58380000
C        1.21150000      -1.06800000       3.68000000
C        2.54730000      -0.95440000       2.92050000
C        3.08530000      -2.25280000       2.24660000
C        3.02460000      -1.56230000       0.85500000
C        2.22270000      -0.38890000       1.49790000
H        1.05070000       1.59480000      -0.45320000
H       -0.54390000       1.43270000      -1.19750000
H       -0.40230000       1.91220000       0.50280000
H       -1.08440000      -0.51160000       0.26970000
H        0.36720000      -0.82410000      -0.67030000
H       -0.87440000      -1.02280000       2.75230000
H        1.10460000      -0.30270000       4.46200000
H        1.11170000      -2.03720000       4.18750000
H        3.31610000      -0.41360000       3.47540000
H        4.07170000      -2.59220000       2.57200000
H        2.38840000      -3.09040000       2.34120000
H        4.00800000      -1.24650000       0.49540000
H        2.52780000      -2.11430000       0.05200000
H        2.58130000       0.61400000       1.24190000
