16
Properties=species:S:1:pos:R:3 gdb_125240=T pbc="F F F"
C       -0.03640000       1.52370000       0.00440000
C       -0.00680000       0.02220000      -0.01370000
C       -0.02160000      -0.69060000      -1.15800000
C        0.00770000      -2.14220000      -1.15060000
O       -0.00200000      -2.86680000      -2.10950000
O        0.05170000      -2.73060000       0.10990000
N        0.06760000      -2.01780000       1.29390000
C        0.04010000      -0.72630000       1.23550000
C        0.06010000      -0.03040000       2.56920000
H        0.84840000       1.93090000       0.50610000
H       -0.07070000       1.92500000      -1.01040000
H       -0.90970000       1.89570000       0.55160000
H       -0.05590000      -0.22400000      -2.13590000
H        0.09550000      -0.77390000       3.36600000
H        0.93180000       0.62680000       2.65910000
H       -0.83170000       0.59120000       2.70410000
