19
Properties=species:S:1:pos:R:3 gdb_74261=T pbc="F F F"
C        0.00930000       1.48470000       0.05010000
C        0.01830000      -0.00890000      -0.01620000
C        0.07360000      -0.76490000      -1.11820000
C        0.01780000      -2.24270000      -0.83650000
C       -1.31420000      -2.89400000      -1.24800000
O        1.10560000      -2.93080000      -1.43880000
C        0.17940000      -2.26270000       0.70150000
O        0.50630000      -3.24470000       1.31770000
C       -0.03870000      -0.85140000       1.24110000
H        0.85060000       1.85650000       0.64860000
H        0.07350000       1.93030000      -0.94600000
H       -0.90350000       1.85490000       0.53400000
H        0.12500000      -0.38080000      -2.13130000
H       -1.40860000      -2.86980000      -2.33730000
H       -1.33320000      -3.93830000      -0.91890000
H       -2.17360000      -2.37520000      -0.81100000
H        1.26910000      -3.70610000      -0.88460000
H        0.72110000      -0.59500000       1.98930000
H       -1.00900000      -0.78640000       1.75440000
