13
Properties=species:S:1:pos:R:3 gdb_130111=T pbc="F F F"
N        0.01560000       1.40900000       0.14730000
C        0.02510000       0.02340000       0.02230000
N       -1.01340000      -0.77950000      -0.00200000
N       -0.57490000      -2.11170000      -0.02330000
C        0.71560000      -2.01460000      -0.03010000
O        1.76020000      -2.87610000      -0.05610000
C        2.88990000      -2.07930000      -0.01670000
C        2.57680000      -0.77020000       0.02470000
N        1.17950000      -0.72470000       0.00860000
H        0.43930000       1.88270000      -0.64450000
H       -0.94400000       1.72260000       0.24280000
H        3.83280000      -2.59760000      -0.02260000
H        3.20580000       0.10070000       0.07220000
