16
Properties=species:S:1:pos:R:3 gdb_29707=T pbc="F F F"
C       -0.08350000       1.46310000       0.00470000
N        0.02190000       0.02020000       0.01530000
C       -0.00240000      -0.82860000      -1.05660000
N       -0.16200000      -0.34650000      -2.36250000
N        0.04640000      -2.09190000      -0.68870000
C        0.10590000      -2.06800000       0.68230000
O        0.16300000      -3.20010000       1.44110000
C        0.10920000      -0.78700000       1.14240000
O        0.17440000      -0.20400000       2.37260000
H        0.89920000       1.94610000       0.05750000
H       -0.58280000       1.76470000      -0.91820000
H       -0.67340000       1.79070000       0.86330000
H        0.66040000       0.14030000      -2.70780000
H       -0.34530000      -1.13240000      -2.97570000
H        0.19470000      -3.93710000       0.82110000
H        0.22380000      -0.91270000       3.02260000
