23
Properties=species:S:1:pos:R:3 gdb_83363=T pbc="F F F"
C       -0.15050000       1.54030000      -0.02470000
C        0.05180000       0.02810000       0.00140000
C        1.07410000      -0.57090000      -0.98130000
C        2.42500000      -0.01540000      -0.49230000
C        2.22820000      -0.02640000       1.05570000
C        0.78740000      -0.58430000       1.23070000
C        0.17570000      -0.38870000       2.60660000
C        0.83480000      -2.05080000       0.75640000
O        1.03700000      -1.97130000      -0.66520000
H        0.78040000       2.09590000       0.11650000
H       -0.58010000       1.85530000      -0.98170000
H       -0.84450000       1.85470000       0.76200000
H       -0.91720000      -0.46460000      -0.14240000
H        0.87410000      -0.45980000      -2.04850000
H        3.23920000      -0.66250000      -0.82550000
H        2.61800000       0.99060000      -0.87750000
H        2.96120000      -0.65490000       1.57040000
H        2.31230000       0.97730000       1.48300000
H        0.13440000       0.67190000       2.87630000
H       -0.84410000      -0.78720000       2.65100000
H        0.76450000      -0.89820000       3.37800000
H        1.65400000      -2.61680000       1.21940000
H       -0.10660000      -2.57960000       0.96400000
