11
Properties=species:S:1:pos:R:3 gdb_43436=T pbc="F F F"
N       -0.08170000       1.27280000       0.01030000
C       -0.03220000       0.01680000       0.00360000
O        1.10830000      -0.75520000      -0.00800000
C        0.75410000      -2.10560000      -0.01250000
O        1.56330000      -2.97890000      -0.02240000
C       -0.72720000      -2.16520000      -0.00280000
C       -1.19350000      -0.90630000       0.00670000
C       -2.54030000      -0.46220000       0.01800000
N       -3.64370000      -0.11570000       0.02720000
H        0.85180000       1.68730000       0.00610000
H       -1.27680000      -3.09390000      -0.00380000
