21
Properties=species:S:1:pos:R:3 gdb_102556=T pbc="F F F"
C        0.18030000       1.20530000       0.38070000
O        0.20440000      -0.19810000       0.20540000
C        0.58380000      -0.62630000      -1.10310000
C        2.11670000      -0.68640000      -1.20670000
O        2.69710000      -1.36210000      -0.10800000
C       -0.09650000      -1.96670000      -1.36650000
C        0.11440000      -3.08060000      -0.36700000
C       -1.28850000      -1.96860000      -2.22700000
O       -0.00820000      -2.34120000      -2.74980000
H        1.16700000       1.66580000       0.23230000
H       -0.53140000       1.68100000      -0.30950000
H       -0.14240000       1.39390000       1.40740000
H        0.21720000       0.08550000      -1.85710000
H        2.39440000      -1.22250000      -2.11910000
H        2.51370000       0.33840000      -1.29160000
H        2.20750000      -1.06310000       0.66900000
H       -0.26270000      -2.77770000       0.61420000
H       -0.41910000      -3.97860000      -0.68880000
H        1.17710000      -3.31020000      -0.26480000
H       -2.00890000      -2.78100000      -2.14110000
H       -1.69370000      -1.03060000      -2.60530000
