20
Properties=species:S:1:pos:R:3 gdb_26284=T pbc="F F F"
C        0.04740000       1.44590000       0.02400000
N       -0.11270000       0.00610000       0.01470000
C        0.05290000      -0.71500000       1.26020000
C       -0.04290000      -0.68180000      -1.18820000
C       -0.00700000      -2.09150000      -1.22560000
C        0.03280000      -2.77270000      -2.43600000
C        0.04690000      -2.08870000      -3.64840000
C        0.02570000      -0.69700000      -3.62330000
C       -0.01400000       0.00080000      -2.42240000
H        1.02610000       1.77250000      -0.36190000
H       -0.72800000       1.93580000      -0.57680000
H       -0.05200000       1.81100000       1.04740000
H       -0.04950000      -0.01870000       2.09390000
H       -0.71830000      -1.48540000       1.37860000
H        1.03440000      -1.20800000       1.34490000
H       -0.00920000      -2.66160000      -0.30610000
H        0.05680000      -3.85820000      -2.42430000
H        0.07990000      -2.62660000      -4.58890000
H        0.04420000      -0.13660000      -4.55310000
H       -0.02210000       1.08230000      -2.44760000
