19
Properties=species:S:1:pos:R:3 gdb_122245=T pbc="F F F"
C       -0.29310000       1.48850000      -0.16430000
C        0.09490000       0.02570000       0.02610000
N        0.60550000      -0.54200000      -1.21830000
C        0.96130000      -1.94430000      -1.12850000
C        1.55630000      -2.40900000      -2.44170000
C        1.27940000      -3.75560000      -2.97920000
O        0.61320000      -2.61160000      -3.50510000
C        2.78970000      -1.75220000      -2.84710000
N        3.78850000      -1.25820000      -3.15210000
H        0.56100000       2.06900000      -0.52340000
H       -1.10290000       1.58890000      -0.89610000
H       -0.64220000       1.92190000       0.77720000
H        0.89040000      -0.05230000       0.77840000
H       -0.76770000      -0.54020000       0.42610000
H       -0.07910000      -0.41950000      -1.95900000
H        1.70890000      -2.06750000      -0.33470000
H        0.11570000      -2.61380000      -0.88620000
H        2.00420000      -4.22270000      -3.64200000
H        0.66270000      -4.43320000      -2.39150000
