16
Properties=species:S:1:pos:R:3 gdb_16651=T pbc="F F F"
C       -0.04480000       1.39430000      -0.13440000
N       -0.01220000      -0.04260000      -0.01620000
C       -1.22310000      -0.84770000       0.02330000
C       -0.70320000      -2.27750000       0.01210000
N        0.05940000      -2.57970000      -1.20960000
C        0.77600000      -2.21480000       0.04330000
C        1.16120000      -0.75380000       0.05170000
O        2.27910000      -0.28590000       0.11750000
H        0.98750000       1.74840000      -0.12290000
H       -0.52550000       1.70730000      -1.06990000
H       -0.59020000       1.84950000       0.70230000
H       -1.80340000      -0.64140000       0.93430000
H       -1.86430000      -0.64290000      -0.84400000
H       -1.26720000      -3.05810000       0.50840000
H        0.11570000      -3.59030000      -1.32310000
H        1.41870000      -2.93300000       0.53590000
