17
Properties=species:S:1:pos:R:3 gdb_7889=T pbc="F F F"
C       -0.06350000       1.55120000       0.01310000
C        0.04650000       0.02550000      -0.00060000
N        0.81830000      -0.46670000      -1.15500000
C        1.77510000      -1.17300000      -0.68750000
C        2.81590000      -1.86970000      -1.50060000
N        1.79810000      -1.27570000       0.70720000
C        0.75190000      -0.52800000       1.24120000
N        0.41610000      -0.31430000       2.44760000
H        0.93040000       2.00850000       0.02510000
H       -0.59100000       1.89900000      -0.87850000
H       -0.60380000       1.87230000       0.90690000
H       -0.96360000      -0.40080000      -0.05050000
H        2.63690000      -1.67060000      -2.55700000
H        3.82010000      -1.52080000      -1.23460000
H        2.78670000      -2.95150000      -1.32900000
H        2.50600000      -1.74480000       1.24720000
H        1.03650000      -0.78460000       3.10880000
