21
Properties=species:S:1:pos:R:3 gdb_78419=T pbc="F F F"
C        0.00620000       1.54530000       0.03120000
C        0.01560000       0.03240000       0.02250000
C        1.31650000      -0.69050000      -0.25300000
C        0.72200000      -0.70210000       1.14150000
C        0.44490000      -2.19020000       1.31540000
C       -0.06810000      -2.78890000      -0.03680000
C        0.67470000      -4.10910000       0.26880000
C        1.65020000      -2.99310000       0.69400000
C        1.25900000      -2.17420000      -0.59430000
H        0.94320000       1.94510000       0.43390000
H       -0.11760000       1.94740000      -0.98050000
H       -0.81180000       1.93380000       0.64810000
H       -0.89460000      -0.41310000      -0.36920000
H        2.20070000      -0.11290000      -0.50080000
H        1.15210000      -0.13350000       1.95910000
H       -0.00150000      -2.54300000       2.24720000
H       -1.06760000      -2.68250000      -0.46200000
H        0.25820000      -4.73230000       1.06560000
H        0.96480000      -4.71840000      -0.59220000
H        2.65070000      -3.09800000       1.11960000
H        1.62430000      -2.51110000      -1.56660000
