20
Properties=species:S:1:pos:R:3 gdb_106218=T pbc="F F F"
C        0.22240000       1.45100000      -0.19120000
C       -0.13870000       0.00450000       0.16630000
C        0.63110000      -0.51410000       1.36190000
C        0.53430000       0.17830000       2.68320000
C        1.65170000      -0.04800000       3.37380000
C        2.48970000      -1.02260000       2.58650000
C        1.78050000      -2.41860000       2.61960000
C        1.06510000      -1.96250000       1.36060000
N        2.05740000      -0.84980000       1.12310000
H        1.29260000       1.53270000      -0.40040000
H       -0.32990000       1.78550000      -1.07440000
H       -0.01100000       2.13720000       0.62940000
H       -1.21350000      -0.07930000       0.37430000
H        0.06330000      -0.64590000      -0.69190000
H       -0.33290000       0.74430000       2.99890000
H        1.87040000       0.25790000       4.38920000
H        3.56760000      -0.99780000       2.74110000
H        2.48240000      -3.22030000       2.37910000
H        1.20120000      -2.68620000       3.50820000
H        0.74640000      -2.62340000       0.55850000
