21
Properties=species:S:1:pos:R:3 gdb_92589=T pbc="F F F"
C       -0.16230000       1.49410000       0.01480000
C        0.04310000      -0.00590000       0.05790000
O       -1.22150000      -0.63820000       0.01340000
C       -1.14570000      -1.87980000       0.70630000
C       -0.16060000      -1.63760000       1.86240000
C        0.84030000      -0.65610000       1.24340000
C        1.85850000      -1.25920000       0.23290000
C        1.10060000      -0.58850000      -0.94990000
O        0.51450000      -1.44040000      -1.90660000
H        0.79540000       2.02270000       0.04900000
H       -0.67960000       1.77870000      -0.90730000
H       -0.77130000       1.82060000       0.86330000
H       -2.15520000      -2.13860000       1.03740000
H       -0.78560000      -2.66900000       0.03260000
H       -0.67870000      -1.16860000       2.70500000
H        0.30600000      -2.56010000       2.22100000
H        1.26940000       0.03500000       1.97080000
H        2.89310000      -0.93290000       0.36560000
H        1.83960000      -2.35240000       0.18240000
H        1.68490000       0.20700000      -1.43490000
H        1.22310000      -1.82490000      -2.43290000
