19
Properties=species:S:1:pos:R:3 gdb_102834=T pbc="F F F"
O       -0.05160000       1.56090000       0.14430000
C        0.04420000       0.16540000      -0.02690000
C       -1.32870000      -0.52050000       0.00380000
O       -1.96920000      -0.12740000       1.22910000
C       -2.06480000      -1.02850000       2.23130000
N       -2.50140000      -0.66740000       3.35670000
C       -2.21880000      -0.14390000      -1.16590000
C       -3.69730000      -0.18530000      -1.05530000
N       -2.98810000       1.10060000      -1.17850000
H       -0.49330000       1.70760000       0.98880000
H        0.51590000      -0.00700000      -1.00010000
H        0.68610000      -0.29590000       0.74140000
H       -1.17760000      -1.61020000      -0.00160000
H       -1.74240000      -2.03740000       1.94050000
H       -2.53140000      -1.46100000       3.99290000
H       -1.76080000      -0.38870000      -2.12330000
H       -4.29570000      -0.46490000      -1.91760000
H       -4.12670000      -0.44560000      -0.09250000
H       -2.92680000       1.54050000      -0.26400000
