15
Properties=species:S:1:pos:R:3 gdb_129340=T pbc="F F F"
N        0.09420000       1.18120000       0.18540000
H        0.21500000       0.18390000       0.17670000
H        0.91260000       1.75810000       0.30640000
C       -1.11810000       1.71980000       0.03650000
N       -1.35510000       2.98190000       0.03410000
C       -2.66750000       3.64690000      -0.12440000
C       -2.29270000       5.09690000      -0.04260000
N       -0.99670000       5.38250000       0.13560000
N       -0.94760000       6.72540000       0.17190000
N       -2.16360000       7.19250000       0.02100000
N       -3.05040000       6.17600000      -0.11910000
H       -1.94200000       1.01970000      -0.08890000
H       -0.64800000       3.79540000       0.14620000
H       -3.11500000       3.37220000      -1.08640000
H       -3.34770000       3.33280000       0.67550000
