14
Properties=species:S:1:pos:R:3 gdb_3257=T pbc="F F F"
C       -0.04810000       1.51450000      -0.01690000
O        1.13380000       0.69490000       0.01680000
C       -0.12350000       0.05310000      -0.00590000
C       -0.52010000      -0.98390000       1.04920000
N       -0.83370000      -1.99940000      -0.02630000
C       -1.89970000      -1.39590000      -0.84220000
C       -0.51110000      -0.94080000      -1.07310000
H       -0.24910000       2.07580000       0.89460000
H       -0.21120000       2.05970000      -0.94570000
H        0.33880000      -1.31120000       1.63890000
H       -1.36390000      -0.76140000       1.71060000
H       -2.32950000      -2.08750000      -1.56050000
H       -2.61650000      -0.72610000      -0.37020000
H        0.06020000      -1.16160000      -1.96830000
