19
Properties=species:S:1:pos:R:3 gdb_48544=T pbc="F F F"
O       -0.16360000       0.02570000      -0.05410000
C        0.00020000       1.21700000       0.08630000
C        1.27990000       1.90390000      -0.02710000
C        1.86980000       3.01260000       0.87730000
C        3.19290000       2.24550000       0.94900000
C        2.70440000       1.33480000      -0.22640000
C        3.16540000       1.88820000      -1.58090000
C        2.57730000       3.32820000      -1.61740000
C        1.49180000       3.32390000      -0.53920000
H       -0.85500000       1.89130000       0.33150000
H        1.37040000       3.49900000       1.70790000
H        4.11610000       2.81410000       0.78890000
H        3.27600000       1.68950000       1.88530000
H        2.83460000       0.26240000      -0.09390000
H        4.25450000       1.87580000      -1.68850000
H        2.74460000       1.28350000      -2.39130000
H        3.33880000       4.08560000      -1.40400000
H        2.15320000       3.56910000      -2.59600000
H        0.61360000       3.94960000      -0.66080000
