19
Properties=species:S:1:pos:R:3 gdb_88478=T pbc="F F F"
O        0.25430000       1.36120000       0.10500000
C        0.04110000      -0.01280000       0.02510000
C       -0.46290000      -0.82760000       1.18950000
C       -1.34030000      -0.62360000      -0.03730000
C       -2.58570000       0.22580000       0.02690000
O       -2.37890000       1.26770000       0.96650000
C       -3.15460000       0.62640000      -1.36220000
O       -4.21830000      -0.33730000      -1.23740000
C       -3.91280000      -0.56890000       0.15110000
H       -0.51960000       1.74360000       0.54080000
H        0.80150000      -0.46500000      -0.60410000
H       -0.04630000      -1.81180000       1.37540000
H       -0.74410000      -0.27520000       2.07940000
H       -1.46550000      -1.47320000      -0.70320000
H       -3.15050000       1.84390000       0.96530000
H       -3.53070000       1.66060000      -1.39860000
H       -2.52150000       0.44320000      -2.23630000
H       -3.84230000      -1.63420000       0.39440000
H       -4.64040000      -0.09020000       0.82440000
