19
Properties=species:S:1:pos:R:3 gdb_99345=T pbc="F F F"
C        0.46820000       1.22690000       0.26140000
N       -0.16590000       0.02300000      -0.24420000
C        0.53210000      -0.82920000      -1.07490000
O        1.61430000      -0.55240000      -1.56710000
N       -0.10180000      -2.03440000      -1.31480000
C        0.42060000      -2.91970000      -2.34650000
C        1.62390000      -3.74480000      -1.84120000
C        2.10910000      -4.67760000      -2.84870000
C        2.47820000      -5.43940000      -3.70230000
H        0.96570000       1.07070000       1.22800000
H        1.22160000       1.53340000      -0.46440000
H       -0.27270000       2.02410000       0.37240000
H       -0.89530000      -0.37870000       0.32310000
H       -1.09140000      -2.08510000      -1.13550000
H       -0.38400000      -3.59370000      -2.65130000
H        0.73270000      -2.34190000      -3.22220000
H        2.41530000      -3.04400000      -1.55680000
H        1.33110000      -4.28700000      -0.93380000
H        2.82220000      -6.11320000      -4.44720000
