17
Properties=species:S:1:pos:R:3 gdb_10621=T pbc="F F F"
C        0.32920000       1.44580000       0.02430000
C        0.24440000      -0.05750000       0.13910000
N        1.49180000      -0.83670000       0.20710000
C        0.57940000      -0.83510000       1.38030000
C        1.20250000      -0.18950000       2.62990000
O        2.27810000       0.66190000       2.31650000
C       -0.20000000      -2.01440000       1.65030000
C       -0.83810000      -3.00100000       1.90970000
H        1.10010000       1.84900000       0.68060000
H        0.55380000       1.73090000      -1.00920000
H       -0.63260000       1.89530000       0.29310000
H       -0.55060000      -0.50700000      -0.45360000
H        1.41650000      -1.71070000      -0.30510000
H        0.44500000       0.39750000       3.16130000
H        1.51910000      -1.00370000       3.30040000
H        2.69730000       0.26530000       1.53700000
H       -1.40870000      -3.86870000       2.13170000
