16
Properties=species:S:1:pos:R:3 gdb_34524=T pbc="F F F"
N        0.11370000      -1.09250000       0.08060000
C        0.01230000       0.05760000       0.02920000
C       -0.05990000       1.50090000      -0.01300000
N       -1.19780000       2.09100000       0.01420000
C       -1.08830000       3.55400000       0.02680000
C       -0.08580000       4.02100000      -1.07390000
C        1.01920000       3.62060000      -0.05680000
C       -0.00140000       3.99650000       1.05720000
N        1.14670000       2.16260000      -0.12320000
H       -2.08200000       3.99670000       0.07260000
H       -0.10670000       3.50280000      -2.03390000
H       -0.11790000       5.10210000      -1.21800000
H        2.00540000       4.08170000      -0.09720000
H       -0.02830000       5.07460000       1.22300000
H        0.04850000       3.46130000       2.00760000
H        1.97160000       1.72100000       0.25400000
