17
Properties=species:S:1:pos:R:3 gdb_91731=T pbc="F F F"
O       -0.00510000       1.44320000      -0.03470000
C        0.02890000       0.03010000       0.03030000
C        0.61420000      -0.55950000       1.35400000
C       -0.60020000      -1.36340000       1.88260000
O       -1.22890000      -1.81460000       0.67430000
C       -1.41790000      -0.52520000       0.06680000
C       -2.24820000       0.22740000       1.12080000
C       -1.62380000      -0.34200000       2.40540000
O       -1.86040000      -0.05010000       3.54570000
H        0.89710000       1.76750000      -0.10980000
H        0.55380000      -0.38500000      -0.83880000
H        1.45680000      -1.22880000       1.16720000
H        0.93550000       0.23330000       2.03500000
H       -0.38990000      -2.19380000       2.55340000
H       -1.88770000      -0.64570000      -0.90780000
H       -2.16440000       1.31390000       1.08740000
H       -3.30350000      -0.05410000       1.05950000
