19
Properties=species:S:1:pos:R:3 gdb_114022=T pbc="F F F"
O        0.17430000       1.15040000      -0.02920000
C       -0.03910000      -0.18160000       0.41440000
C       -1.44330000      -0.66520000       0.13550000
C       -1.78450000      -1.16190000      -1.26430000
C       -1.74220000      -2.12520000      -0.12500000
O       -0.70840000      -3.06370000      -0.14610000
C       -0.43700000      -3.63460000       1.11460000
C        0.67230000      -4.65680000       0.93670000
O        1.12790000      -5.30640000       1.83890000
H       -0.04500000       1.17790000      -0.96660000
H        0.68430000      -0.87830000      -0.03400000
H        0.15120000      -0.15910000       1.49300000
H       -2.22030000      -0.10500000       0.64850000
H       -2.74240000      -0.91060000      -1.70450000
H       -0.96400000      -1.23820000      -1.97160000
H       -2.68440000      -2.52080000       0.25610000
H       -0.11700000      -2.88230000       1.85200000
H       -1.32230000      -4.14200000       1.53180000
H        1.02730000      -4.75100000      -0.11320000
