21
Properties=species:S:1:pos:R:3 gdb_36301=T pbc="F F F"
C       -0.13430000      -0.97410000      -0.45490000
C       -0.10130000       0.16870000      -0.08320000
C       -0.03370000       1.55750000       0.36500000
C        1.36000000       2.15580000       0.20250000
C        1.96670000       2.64090000      -1.09250000
C        1.07780000       2.96610000      -2.28680000
C        0.03320000       4.00280000      -1.79180000
C        0.58440000       4.58670000      -0.46260000
C        1.66470000       3.62630000       0.02200000
H       -0.17190000      -1.98320000      -0.78240000
H       -0.78730000       2.14330000      -0.16780000
H       -0.31750000       1.60690000       1.42490000
H        2.08080000       1.64430000       0.83620000
H        2.98470000       2.33040000      -1.30300000
H        1.70200000       3.39860000      -3.07640000
H        0.59970000       2.07820000      -2.71410000
H       -0.13480000       4.78850000      -2.53380000
H       -0.93910000       3.52800000      -1.63570000
H        1.04740000       5.56430000      -0.63730000
H       -0.21170000       4.74830000       0.27340000
H        2.45940000       4.04280000       0.63260000
