18
Properties=species:S:1:pos:R:3 gdb_33498=T pbc="F F F"
C       -0.58200000      -1.11550000       0.22800000
C       -0.34900000       0.06190000       0.14290000
C       -0.07110000       1.47180000       0.02250000
C       -1.08180000       2.29620000      -0.76260000
C       -1.13950000       1.90000000      -2.22020000
C       -2.14650000       0.96710000      -2.73780000
O       -2.26550000       2.37420000      -2.96070000
C        0.71920000       2.10820000       1.12210000
N        1.34450000       1.88060000      -0.18440000
H       -0.78640000      -2.15460000       0.30830000
H       -2.07700000       2.19430000      -0.31720000
H       -0.79010000       3.34930000      -0.69030000
H       -0.18990000       1.97540000      -2.75080000
H       -1.92990000       0.36930000      -3.62180000
H       -2.87740000       0.53780000      -2.05420000
H        0.52830000       3.14990000       1.36520000
H        1.00850000       1.48330000       1.96130000
H        1.94280000       1.05930000      -0.14230000
