18
Properties=species:S:1:pos:R:3 gdb_55187=T pbc="F F F"
O        0.07110000       0.02890000       0.62020000
C       -0.03150000       1.00900000      -0.14170000
O        0.64050000       1.44290000      -1.08020000
C       -1.26890000       1.93670000       0.14150000
C       -2.15110000       2.37410000      -1.05140000
C       -3.35770000       1.66740000      -0.40180000
C       -3.57380000       0.17060000      -0.73770000
C       -2.76520000      -0.20580000       0.53160000
N       -2.50610000       1.26450000       0.81360000
H       -2.72290000       1.57990000       1.75520000
H       -0.95970000       2.75390000       0.79470000
H       -2.27630000       3.45180000      -1.16710000
H       -1.81610000       1.95130000      -1.99870000
H       -4.24420000       2.26010000      -0.17860000
H       -4.61500000      -0.15310000      -0.72620000
H       -3.11390000      -0.13630000      -1.67750000
H       -3.36410000      -0.62900000       1.33870000
H       -1.81080000      -0.72320000       0.42650000
