19
Properties=species:S:1:pos:R:3 gdb_121328=T pbc="F F F"
C       -0.08600000       0.81220000       0.49050000
O       -0.37870000       0.27450000      -0.78950000
C        0.68300000      -0.39080000      -1.42660000
C        0.74590000      -1.90460000      -1.12920000
C        1.34190000      -2.76070000      -2.25570000
C        1.87620000      -3.97680000      -1.49190000
O        2.23370000      -3.48260000      -0.18930000
C        1.60780000      -2.30420000       0.07090000
O        1.76710000      -1.72250000       1.10710000
H        0.18140000       0.03710000       1.21520000
H        0.74300000       1.53400000       0.43600000
H       -0.98700000       1.33660000       0.81830000
H        0.50910000      -0.27350000      -2.50300000
H        1.64980000       0.07940000      -1.19120000
H       -0.27910000      -2.23040000      -0.90890000
H        0.61930000      -3.03240000      -3.02760000
H        2.16760000      -2.22460000      -2.73800000
H        1.11280000      -4.75500000      -1.37340000
H        2.76840000      -4.42560000      -1.93320000
