14
Properties=species:S:1:pos:R:3 gdb_650=T pbc="F F F"
C       -0.06200000       1.59540000       0.07220000
C        1.46220000       1.35680000      -0.00080000
C        1.80050000       0.70030000       1.35530000
C        0.63710000      -0.34490000       1.36170000
C        0.01210000       0.05410000       0.00720000
O        1.19400000       0.19160000      -0.84470000
H       -0.48990000       2.07710000       0.95590000
H       -0.45250000       2.02440000      -0.85070000
H        2.16370000       2.06960000      -0.43410000
H        2.78700000       0.23310000       1.33530000
H        1.76280000       1.40390000       2.19130000
H        0.99620000      -1.37580000       1.34520000
H       -0.05340000      -0.22780000       2.20130000
H       -0.77410000      -0.56970000      -0.41780000
