18
Properties=species:S:1:pos:R:3 gdb_53421=T pbc="F F F"
C        0.04020000       1.53990000      -0.07200000
C        0.05640000       0.08460000      -0.03000000
C        0.06920000      -1.11900000       0.00160000
C        0.07360000      -2.57860000       0.04910000
C        0.71390000      -3.10490000       1.34420000
O       -0.09210000      -2.80420000       2.48700000
C       -1.43190000      -2.90120000       2.30250000
N       -2.08480000      -3.09180000       1.23810000
C       -1.35420000      -3.17600000      -0.01990000
H        0.64940000       1.92180000      -0.89870000
H       -0.97780000       1.92170000      -0.20620000
H        0.43470000       1.96840000       0.85590000
H        0.66210000      -2.96450000      -0.79340000
H        0.83740000      -4.19360000       1.27710000
H        1.68670000      -2.64830000       1.53300000
H       -1.94220000      -2.78130000       3.25640000
H       -1.93690000      -2.65980000      -0.78850000
H       -1.29440000      -4.22910000      -0.32450000
