21
Properties=species:S:1:pos:R:3 gdb_91924=T pbc="F F F"
O       -0.12390000       1.45920000      -0.03310000
C        0.02020000       0.04450000      -0.01360000
C       -1.39240000      -0.54230000       0.02950000
C       -1.42580000      -2.05200000      -0.20360000
C       -1.47250000      -2.60050000      -1.60910000
C       -0.22140000      -2.76810000      -0.78970000
C        1.03560000      -1.99320000      -1.11590000
O        1.58120000      -2.53840000      -2.31540000
C        0.78680000      -0.48270000      -1.23070000
H        0.75640000       1.84840000      -0.04120000
H        0.55990000      -0.26730000       0.89760000
H       -1.84420000      -0.30170000       0.99630000
H       -1.98640000      -0.01740000      -0.72820000
H       -1.98200000      -2.61340000       0.54000000
H       -2.07010000      -3.48370000      -1.80590000
H       -1.45830000      -1.88770000      -2.42720000
H       -0.02670000      -3.77120000      -0.42300000
H        1.74390000      -2.15360000      -0.28470000
H        2.42170000      -2.09880000      -2.48250000
H        0.22750000      -0.26050000      -2.14670000
H        1.75390000       0.03350000      -1.31540000
