22
Properties=species:S:1:pos:R:3 gdb_103984=T pbc="F F F"
C        0.00960000       1.54210000       0.10360000
C       -0.01480000       0.04460000      -0.03270000
C       -0.84360000      -0.80480000       0.84890000
N        0.62320000      -0.89450000       0.98690000
C        1.04980000      -1.77690000      -0.15630000
C        0.53330000      -0.76930000      -1.22640000
C       -0.46290000      -1.25630000      -2.27750000
C        1.71170000      -0.06140000      -1.89400000
O        2.37760000      -1.01030000      -2.71660000
H        0.97190000       1.97140000      -0.19220000
H       -0.76930000       2.00230000      -0.51620000
H       -0.17620000       1.82940000       1.14260000
H       -1.32260000      -0.31620000       1.69280000
H       -1.38810000      -1.66420000       0.46380000
H        2.13280000      -1.90860000      -0.16720000
H        0.57270000      -2.76280000      -0.14320000
H       -1.28840000      -1.81490000      -1.82850000
H       -0.89150000      -0.40990000      -2.82760000
H        0.03770000      -1.90560000      -3.00060000
H        1.34900000       0.79260000      -2.48960000
H        2.39050000       0.33320000      -1.12280000
H        3.13890000      -0.58110000      -3.11680000
