20
Properties=species:S:1:pos:R:3 gdb_3014=T pbc="F F F"
C       -0.07820000       1.57670000      -0.01820000
C       -0.05340000       0.04600000       0.00210000
C       -1.42980000      -0.63750000       0.00440000
C       -1.27740000      -2.15880000      -0.06590000
N       -2.16710000      -0.29130000       1.22410000
C       -3.05050000       0.86930000       1.17310000
C       -3.60960000      -0.50820000       1.19770000
H        0.93790000       1.97740000      -0.09030000
H       -0.64370000       1.95710000      -0.87670000
H       -0.53010000       1.98400000       0.88990000
H        0.49710000      -0.31730000      -0.87480000
H        0.49860000      -0.30100000       0.88410000
H       -1.98900000      -0.29970000      -0.89110000
H       -2.25250000      -2.65460000      -0.08390000
H       -0.73140000      -2.45190000      -0.96770000
H       -0.72810000      -2.52650000       0.80680000
H       -3.06870000       1.49350000       2.06230000
H       -3.12550000       1.41420000       0.23360000
H       -4.05700000      -0.87380000       0.27400000
H       -4.04690000      -0.91580000       2.10480000
