13
Properties=species:S:1:pos:R:3 gdb_24858=T pbc="F F F"
N       -0.05300000       0.88270000       0.92410000
C       -0.04700000       0.06150000      -0.03260000
O        1.08050000      -0.17270000      -0.78670000
C        1.52380000      -1.38440000      -1.30300000
O        2.55620000      -1.37390000      -1.90990000
C        0.75670000      -2.60580000      -1.02090000
C       -0.55910000      -2.72940000      -0.77760000
N       -1.55190000      -1.75670000      -0.79560000
C       -1.33350000      -0.54270000      -0.48240000
H        0.88820000       1.23410000       1.11410000
H        1.35490000      -3.50470000      -1.11980000
H       -0.95930000      -3.72940000      -0.63010000
H       -2.16960000       0.15550000      -0.50900000
