17
Properties=species:S:1:pos:R:3 gdb_26694=T pbc="F F F"
C        0.05250000       1.50940000       0.04800000
C        0.05950000       0.01200000       0.01450000
C        0.05420000      -0.81490000      -1.09120000
O        0.04230000      -0.55700000      -2.42740000
N        0.04800000      -2.11010000      -0.69220000
C        0.05520000      -2.17430000       0.70450000
N        0.05090000      -3.42890000       1.34920000
C        0.06350000      -0.87470000       1.14270000
O        0.05920000      -0.52060000       2.46670000
H        1.00860000       1.94090000       0.37560000
H       -0.16060000       1.93510000      -0.93970000
H       -0.72600000       1.90200000       0.71620000
H        0.15170000       0.39030000      -2.55270000
H        0.05920000      -2.91320000      -1.29590000
H       -0.77030000      -3.54950000       1.93420000
H        0.85960000      -3.54360000       1.95220000
H        0.13100000       0.43620000       2.52420000
