16
Properties=species:S:1:pos:R:3 gdb_128686=T pbc="F F F"
C       -0.04710000       1.35560000       0.00350000
O       -0.02470000      -0.06730000      -0.05340000
C       -1.23280000      -0.66860000      -0.03370000
N       -2.38980000      -0.03480000       0.05830000
N       -3.30700000      -1.04450000       0.07570000
C       -2.74260000      -2.28090000      -0.03410000
N       -3.52080000      -3.44570000      -0.11100000
C       -1.38190000      -2.07320000      -0.09010000
O       -0.41750000      -3.04070000      -0.15630000
H        0.99550000       1.67620000      -0.01830000
H       -0.58910000       1.77260000      -0.85190000
H       -0.53100000       1.70160000       0.92270000
H       -4.27920000      -0.82470000      -0.04890000
H       -3.93750000      -3.69240000       0.78200000
H       -2.94600000      -4.22490000      -0.41090000
H        0.42740000      -2.59490000      -0.27850000
