21
Properties=species:S:1:pos:R:3 gdb_92551=T pbc="F F F"
O        0.24840000       1.37850000       0.30920000
C        0.07410000      -0.01530000       0.06130000
C       -1.41120000      -0.40490000       0.02290000
C       -1.60310000      -1.88280000      -0.32850000
C       -2.93820000      -2.20780000      -1.05950000
C       -2.18780000      -2.15450000      -2.41930000
C       -0.84070000      -2.27520000      -1.63030000
C        0.33240000      -1.42550000      -1.99590000
C        0.76510000      -0.43310000      -1.21640000
H       -0.12360000       1.85100000      -0.44410000
H        0.55760000      -0.49760000       0.92190000
H       -1.88680000      -0.16160000       0.97870000
H       -1.89320000       0.22170000      -0.74070000
H       -1.37560000      -2.50400000       0.54320000
H       -3.29470000      -3.21580000      -0.83030000
H       -3.76470000      -1.50730000      -0.91290000
H       -2.41110000      -2.93720000      -3.14760000
H       -2.28350000      -1.18400000      -2.91290000
H       -0.53890000      -3.32890000      -1.59550000
H        0.85460000      -1.65830000      -2.92260000
H        1.64700000       0.14640000      -1.47940000
