18
Properties=species:S:1:pos:R:3 gdb_106239=T pbc="F F F"
C        0.19420000       1.75580000       0.37970000
C        0.06460000       0.25060000       0.41480000
C        1.09740000      -0.73200000      -0.17460000
C        2.46590000      -0.27410000       0.19680000
N        3.55490000      -0.12380000      -0.40350000
O        2.16080000      -0.11120000       1.55470000
C        0.83020000      -0.65550000       1.31640000
C        0.33230000      -1.65200000       2.32640000
O       -0.95530000      -2.14130000       2.00030000
H        1.19990000       2.07300000       0.66280000
H       -0.01900000       2.14060000      -0.62210000
H       -0.51290000       2.21970000       1.07590000
H       -0.93690000      -0.13150000       0.22320000
H        0.84500000      -1.47940000      -0.91220000
H        4.29180000       0.17330000       0.23850000
H        1.00260000      -2.51740000       2.34820000
H        0.36200000      -1.19310000       3.32660000
H       -1.59620000      -1.45500000       2.21060000
