16
Properties=species:S:1:pos:R:3 gdb_51301=T pbc="F F F"
N        0.37070000       1.20910000       0.00270000
C        0.06080000      -0.02070000       0.00090000
N       -1.24210000      -0.48920000       0.01130000
C       -2.43070000       0.19450000       0.02560000
N       -2.65260000       1.45370000       0.03210000
C       -4.10750000       1.68200000       0.04770000
C       -4.82340000       0.31400000       0.04980000
C       -3.66660000      -0.66760000       0.03520000
O       -3.66710000      -1.87540000       0.03140000
H        1.38440000       1.30740000      -0.00620000
H        0.76730000      -0.86020000      -0.00880000
H       -1.37740000      -1.49190000       0.00940000
H       -4.35450000       2.28260000       0.92980000
H       -4.37230000       2.28930000      -0.82460000
H       -5.44370000       0.14360000       0.93460000
H       -5.46020000       0.14990000      -0.82460000
