21
Properties=species:S:1:pos:R:3 gdb_68147=T pbc="F F F"
C        0.03850000       1.50650000       0.01360000
C        0.02750000      -0.00390000       0.04550000
C        1.00440000      -0.85680000      -0.82500000
C        0.64150000      -1.96460000       0.22400000
C        0.56820000      -0.81900000       1.26350000
C       -0.85140000      -2.20990000      -0.11060000
C       -1.31370000      -0.72180000      -0.22850000
C        1.52040000      -3.15650000       0.38590000
O        2.20860000      -3.38480000       1.35080000
H        1.03820000       1.90380000       0.21730000
H       -0.27990000       1.88470000      -0.96490000
H       -0.64440000       1.91980000       0.76490000
H        0.74670000      -1.03730000      -1.87320000
H        2.04240000      -0.52680000      -0.73740000
H        1.55840000      -0.49370000       1.58870000
H       -0.08800000      -0.95380000       2.12810000
H       -0.98280000      -2.77320000      -1.03930000
H       -1.36370000      -2.75210000       0.68890000
H       -2.07540000      -0.46210000       0.51300000
H       -1.71450000      -0.48110000      -1.21800000
H        1.51440000      -3.85300000      -0.48710000
