20
Properties=species:S:1:pos:R:3 gdb_99262=T pbc="F F F"
C       -0.02750000       1.45530000      -0.11420000
C       -0.16510000      -0.06190000      -0.05790000
O        0.82480000      -0.65740000       0.78670000
C       -1.56380000      -0.50560000       0.38450000
N       -1.61180000      -1.95050000       0.49670000
C       -2.65680000      -2.70080000       0.08520000
O       -3.68880000      -2.23960000      -0.38520000
C       -2.50640000      -4.21990000       0.23200000
O       -3.65790000      -4.85530000      -0.23670000
H        0.98570000       1.73220000      -0.41610000
H       -0.73430000       1.88850000      -0.82880000
H       -0.22950000       1.90370000       0.86680000
H        0.03420000      -0.48890000      -1.04750000
H        0.81190000      -0.18900000       1.62960000
H       -1.80900000      -0.03170000       1.34800000
H       -2.32750000      -0.19800000      -0.33370000
H       -0.77520000      -2.39200000       0.84910000
H       -1.61500000      -4.54560000      -0.32810000
H       -2.32230000      -4.45810000       1.29230000
H       -4.23240000      -4.12370000      -0.52290000
