20
Properties=species:S:1:pos:R:3 gdb_47651=T pbc="F F F"
O       -0.05770000      -0.00360000       0.04710000
C       -0.14410000       1.21230000       0.09880000
C       -1.50200000       1.90130000       0.07700000
C       -1.97460000       2.13160000      -1.37760000
C       -1.06340000       2.91000000      -2.29740000
C       -0.13730000       3.81980000      -1.99210000
C        0.20310000       4.32010000      -0.61130000
C        1.18180000       3.42920000       0.19540000
N        0.98260000       1.98830000       0.12080000
H       -2.19720000       1.20840000       0.55630000
H       -1.50680000       2.82410000       0.65770000
H       -2.13090000       1.14280000      -1.82450000
H       -2.96760000       2.60300000      -1.35800000
H       -1.20080000       2.67540000      -3.35170000
H        0.43870000       4.24810000      -2.80950000
H        0.67830000       5.30450000      -0.68430000
H       -0.70960000       4.48300000      -0.03450000
H        2.19450000       3.60390000      -0.18180000
H        1.17670000       3.77700000       1.23910000
H        1.81960000       1.42500000       0.08510000
