22
Properties=species:S:1:pos:R:3 gdb_99892=T pbc="F F F"
C       -0.14740000       1.48910000       0.12080000
C       -0.03340000      -0.01880000      -0.11510000
C        0.77880000      -0.45230000      -1.37150000
C        0.16210000       0.13870000      -2.65750000
C        2.15780000       0.05950000      -1.24400000
N        3.23670000       0.46100000      -1.13550000
C        0.86480000      -1.98770000      -1.37750000
C       -0.17520000      -2.86900000      -2.02240000
C        1.22380000      -2.80840000      -2.58630000
H        0.84000000       1.95670000       0.18590000
H       -0.70840000       1.99000000      -0.67340000
H       -0.67080000       1.68250000       1.06180000
H        0.42870000      -0.48690000       0.76120000
H       -1.03010000      -0.46390000      -0.21630000
H        0.23050000       1.22790000      -2.65080000
H        0.67990000      -0.21560000      -3.55140000
H       -0.89420000      -0.13420000      -2.73010000
H        1.26600000      -2.36380000      -0.44030000
H       -0.48590000      -3.75910000      -1.48690000
H       -0.96590000      -2.40640000      -2.60150000
H        1.35910000      -2.30720000      -3.53770000
H        1.88360000      -3.65600000      -2.44020000
