20
Properties=species:S:1:pos:R:3 gdb_12278=T pbc="F F F"
C        0.47370000       1.34170000      -0.38070000
C        0.10820000      -0.06640000       0.05080000
O        0.78970000      -1.07830000      -0.73750000
C        1.42590000      -1.64870000       0.43600000
C        2.93700000      -1.58610000       0.26910000
O        3.31150000      -2.26500000      -0.91490000
C        0.69130000      -0.65240000       1.37100000
C        1.48540000       0.23890000       2.31910000
H        1.55090000       1.51950000      -0.32100000
H        0.16280000       1.50010000      -1.41820000
H       -0.03820000       2.08280000       0.24290000
H       -0.97860000      -0.20010000      -0.03230000
H        1.12750000      -2.69800000       0.55790000
H        3.27600000      -0.53900000       0.24890000
H        3.44040000      -2.08700000       1.10370000
H        2.74330000      -1.90560000      -1.60830000
H       -0.08820000      -1.16390000       1.94190000
H        2.27740000       0.79800000       1.81500000
H        0.82620000       0.96550000       2.80570000
H        1.95230000      -0.35770000       3.10990000
