12
Properties=species:S:1:pos:R:3 gdb_129015=T pbc="F F F"
N        0.06080000       1.26230000       0.00870000
N        1.15980000       2.07390000       0.00250000
N        2.32040000       1.51730000      -0.01170000
C        2.37550000       0.16790000      -0.01960000
C        3.40300000      -0.74810000      -0.03450000
N        2.89830000      -2.02870000      -0.03660000
C        1.56680000      -1.98450000      -0.02350000
C        1.13980000      -0.63690000      -0.01200000
N       -0.03510000      -0.05380000       0.00250000
H       -0.81010000       1.77440000       0.01990000
H        4.46830000      -0.57200000      -0.04390000
H        0.95890000      -2.87820000      -0.02240000
