15
Properties=species:S:1:pos:R:3 gdb_45760=T pbc="F F F"
O       -0.04020000       0.01000000       0.20480000
C       -0.00340000       1.20900000       0.10030000
N       -1.08020000       2.09000000       0.13180000
C       -0.60510000       3.38650000      -0.01810000
N        0.65650000       3.50970000      -0.16490000
C        1.20440000       2.15190000      -0.08530000
C        2.19520000       1.97380000       1.05360000
C        2.92510000       3.10350000       1.63460000
O        1.81130000       2.50900000       2.31440000
H       -2.03510000       1.81140000       0.28950000
H       -1.30380000       4.21680000      -0.01890000
H        1.71320000       1.89800000      -1.02410000
H        2.62620000       0.97340000       1.09430000
H        3.89580000       2.93160000       2.09650000
H        2.74410000       4.10070000       1.24300000
