20
Properties=species:S:1:pos:R:3 gdb_40749=T pbc="F F F"
C        0.00080000       1.53050000       0.10570000
N        1.10020000       0.60650000      -0.21360000
C       -0.24650000       0.06730000       0.05200000
C       -0.36900000      -0.74230000       1.30920000
O       -1.74400000      -0.88360000       1.75880000
C       -1.59300000      -2.30930000       1.93080000
C       -2.13150000      -3.11430000       0.72790000
C       -0.71480000      -3.05050000       0.07150000
C       -0.17040000      -2.27490000       1.30420000
H        0.08800000       2.02620000       1.06880000
H       -0.41630000       2.14720000      -0.68580000
H        1.28090000       0.61030000      -1.21350000
H       -0.82970000      -0.29180000      -0.79270000
H        0.24370000      -0.26570000       2.08770000
H       -1.83890000      -2.63340000       2.94580000
H       -2.44820000      -4.13000000       0.98090000
H       -2.94260000      -2.61180000       0.19620000
H       -0.25070000      -4.03260000      -0.04200000
H       -0.64490000      -2.53860000      -0.89120000
H        0.73240000      -2.65360000       1.78050000
