14
Properties=species:S:1:pos:R:3 gdb_25649=T pbc="F F F"
C       -0.05880000       1.41550000       0.00390000
C       -0.00240000      -0.03550000       0.00520000
C        0.04860000      -1.24030000       0.00690000
C        0.10930000      -2.64600000       0.00870000
N        1.17130000      -3.41200000       0.04890000
C        0.67380000      -4.68970000       0.02950000
O        1.48070000      -5.76460000       0.05990000
C       -0.68520000      -4.66020000      -0.02220000
O       -1.05390000      -3.33950000      -0.03580000
H        0.93960000       1.84430000       0.14030000
H       -0.46140000       1.79530000      -0.94170000
H       -0.69770000       1.78650000       0.81280000
H        2.38550000      -5.43060000       0.09440000
H       -1.46770000      -5.39510000      -0.05220000
