14
Properties=species:S:1:pos:R:3 gdb_84188=T pbc="F F F"
C       -0.07170000       1.57000000       0.02300000
C        0.03130000       0.04200000      -0.02230000
N        0.80990000      -0.44540000      -1.16000000
C        1.74910000      -1.14890000      -0.66390000
O        1.80520000      -1.27810000       0.71420000
C        0.73420000      -0.53380000       1.20600000
O        0.50910000      -0.42630000       2.36890000
C        2.76710000      -1.83090000      -1.37940000
C        3.63300000      -2.41260000      -1.97480000
H        0.92230000       2.02450000       0.05090000
H       -0.59340000       1.93220000      -0.86500000
H       -0.62190000       1.87440000       0.91670000
H       -0.97940000      -0.38350000      -0.07340000
H        4.39640000      -2.92560000      -2.50770000
