22
Properties=species:S:1:pos:R:3 gdb_26098=T pbc="F F F"
C       -0.02750000       1.54100000       0.02340000
C       -0.00940000      -0.00360000       0.00910000
C        0.73740000      -0.51130000       1.26250000
C       -1.45890000      -0.51890000       0.05060000
C        0.70210000      -0.49170000      -1.23860000
C        0.18890000      -1.28770000      -2.24090000
N        1.17030000      -1.48930000      -3.18050000
C        2.31300000      -0.83490000      -2.80160000
C        2.05630000      -0.20920000      -1.60620000
H        0.98720000       1.95010000       0.00200000
H       -0.56260000       1.93310000      -0.84730000
H       -0.52230000       1.91600000       0.92690000
H        0.24960000      -0.15480000       2.17710000
H        0.75630000      -1.60540000       1.28900000
H        1.77390000      -0.16040000       1.27620000
H       -2.03150000      -0.16710000      -0.81400000
H       -1.49240000      -1.61340000       0.05910000
H       -1.96510000      -0.16230000       0.95370000
H       -0.78740000      -1.72610000      -2.36490000
H        1.06390000      -2.03420000      -4.01740000
H        3.20320000      -0.86990000      -3.40900000
H        2.76200000       0.38930000      -1.05000000
