14
Properties=species:S:1:pos:R:3 gdb_27444=T pbc="F F F"
N        0.16320000       1.26560000       0.34990000
C       -0.11060000      -0.02550000       0.01070000
N       -1.27450000      -0.52410000       0.23950000
C       -1.52710000      -1.86870000       0.00800000
N       -2.51190000      -2.25970000      -0.69030000
N       -0.69840000      -2.79380000       0.71440000
C        0.55310000      -2.80220000       0.46410000
C        1.27110000      -1.86460000      -0.42020000
N        0.99740000      -0.63090000      -0.62240000
H        0.93230000       1.71120000      -0.12090000
H       -0.62240000       1.83690000       0.61560000
H       -2.57470000      -3.27840000      -0.65110000
H        1.16780000      -3.57090000       0.94070000
H        2.16900000      -2.25310000      -0.90830000
