11
Properties=species:S:1:pos:R:3 gdb_699=T pbc="F F F"
N       -0.10900000       1.58260000      -0.04330000
C        1.36480000       1.31190000       0.00890000
C        1.25770000       0.02610000       0.89760000
O        1.99540000      -0.82010000      -0.02950000
C        1.22520000       0.05570000      -0.90070000
C       -0.03470000       0.08620000       0.01400000
H       -0.43100000       1.95390000       0.85380000
H        2.13060000       2.08750000      -0.00170000
H        1.39100000      -0.12170000       1.97040000
H        1.31350000      -0.04960000      -1.98030000
H       -0.90450000      -0.57080000       0.00930000
