17
Properties=species:S:1:pos:R:3 gdb_97544=T pbc="F F F"
C        0.07320000       1.55850000       0.17240000
C        0.06350000       0.02900000       0.07730000
O        0.66190000      -0.58510000       1.21840000
C       -1.38350000      -0.51790000       0.07640000
O       -2.35000000       0.11780000      -0.23820000
C        0.68720000      -0.44440000      -1.16290000
C        1.21550000      -0.84570000      -2.17030000
C        1.82070000      -1.36810000      -3.39660000
O        2.01300000      -2.77310000      -3.37960000
H        1.09640000       1.93570000       0.10100000
H       -0.52620000       1.99160000      -0.63080000
H       -0.35370000       1.85890000       1.13230000
H        1.61510000      -0.59930000       1.08190000
H       -1.43100000      -1.57940000       0.39840000
H        1.21190000      -1.05020000      -4.25790000
H        2.81600000      -0.93210000      -3.53720000
H        1.16060000      -3.18250000      -3.19690000
