17
Properties=species:S:1:pos:R:3 gdb_33952=T pbc="F F F"
N        0.03160000      -1.12270000      -0.01030000
C        0.02520000       0.03420000       0.01160000
C        0.00910000       1.46850000       0.03820000
C        0.38300000       2.22780000      -1.22830000
C        1.29890000       2.29180000      -0.04490000
C        1.15590000       3.41830000       0.98250000
N       -0.13620000       3.27620000       1.69200000
C       -1.34500000       3.52670000       0.89400000
C       -0.85900000       2.13840000       1.09320000
H        0.70480000       1.62080000      -2.06740000
H       -0.21290000       3.08700000      -1.50900000
H        2.25500000       1.78570000      -0.11710000
H        1.95340000       3.32810000       1.72610000
H        1.23670000       4.41430000       0.53360000
H       -2.19500000       3.88470000       1.46930000
H       -1.25270000       3.99030000      -0.08360000
H       -1.37510000       1.46510000       1.77070000
