20
Properties=species:S:1:pos:R:3 gdb_17054=T pbc="F F F"
C       -0.09860000       1.63000000       0.13230000
C        0.04170000       0.12720000      -0.07120000
C        1.17120000      -0.48830000      -0.96670000
C        2.17580000      -0.17210000       0.18180000
C        0.91320000      -0.76150000       0.87800000
C        0.93520000      -1.85270000      -0.24330000
C       -0.25310000      -2.74660000      -0.53950000
O       -0.30120000      -3.72410000       0.49570000
H        0.84520000       2.14130000       0.33450000
H       -0.54040000       2.09400000      -0.75710000
H       -0.77140000       1.83670000       0.97240000
H       -0.95130000      -0.28330000      -0.27010000
H        1.32540000      -0.33100000      -2.03690000
H        3.07780000      -0.78920000       0.21610000
H        2.41690000       0.87400000       0.36840000
H        0.76640000      -0.92890000       1.94610000
H        1.82840000      -2.48580000      -0.20300000
H       -1.19850000      -2.19040000      -0.59460000
H       -0.10030000      -3.22120000      -1.52330000
H       -1.02470000      -4.32750000       0.30300000
