21
Properties=species:S:1:pos:R:3 gdb_118507=T pbc="F F F"
C       -0.30460000       1.25250000       0.18660000
O       -0.06600000      -0.12680000       0.03620000
C        0.68980000      -0.67360000       1.09160000
C        0.91970000      -2.15930000       0.81140000
C        1.77300000      -2.37980000      -0.45270000
O        1.73680000      -3.71770000      -0.90170000
C        1.56830000      -2.80760000       2.01940000
C        0.88060000      -3.78790000       2.86930000
O        1.86320000      -4.21270000       1.91840000
H        0.63360000       1.82900000       0.21420000
H       -0.89400000       1.57740000      -0.67390000
H       -0.86820000       1.47100000       1.10750000
H        1.65820000      -0.14870000       1.18440000
H        0.16210000      -0.54250000       2.05260000
H       -0.05430000      -2.62780000       0.62840000
H        1.37660000      -1.75970000      -1.26080000
H        2.80680000      -2.04270000      -0.25430000
H        1.90190000      -4.27860000      -0.13340000
H        2.38580000      -2.23920000       2.46850000
H        1.17180000      -3.90860000       3.91110000
H       -0.14490000      -4.06830000       2.63500000
