19
Properties=species:S:1:pos:R:3 gdb_71838=T pbc="F F F"
C       -0.09000000       1.52080000       0.02660000
C       -0.07280000       0.02800000      -0.08560000
C        0.74130000      -0.80370000      -1.07850000
C       -0.17110000      -2.02580000      -0.71800000
N        0.51050000      -2.73500000       0.37850000
C        0.42300000      -1.93210000       1.36270000
N       -0.37120000      -0.75460000       1.19650000
C       -1.14720000      -1.00340000      -0.03930000
C       -2.64200000      -0.95030000      -0.04760000
H        0.87450000       1.89370000       0.38950000
H       -0.27970000       1.98090000      -0.94930000
H       -0.86230000       1.84880000       0.72650000
H        0.54900000      -0.44790000      -2.09420000
H        1.81610000      -0.93580000      -0.92280000
H       -0.50580000      -2.68300000      -1.51800000
H        0.90540000      -2.09560000       2.32130000
H       -2.99840000      -0.08370000       0.51620000
H       -3.02430000      -0.87750000      -1.07140000
H       -3.06760000      -1.85080000       0.40860000
