15
Properties=species:S:1:pos:R:3 gdb_44492=T pbc="F F F"
O       -0.01990000       0.04340000      -0.22730000
C        0.00190000       1.20990000       0.01320000
O       -1.13260000       1.97610000       0.18670000
C       -0.70470000       3.27570000       0.54970000
C        0.12180000       4.05990000      -0.53500000
C        0.98780000       4.59750000       0.62330000
C        0.70500000       3.19230000       1.20860000
C        1.16090000       2.20560000       0.11350000
O        0.94500000       3.01930000      -1.07800000
H       -1.49590000       3.81080000       1.06810000
H       -0.30720000       4.66120000      -1.33270000
H        2.01440000       4.86900000       0.37580000
H        0.50090000       5.38170000       1.20710000
H        0.85520000       2.91100000       2.24880000
H        2.15890000       1.77570000       0.12510000
