14
Properties=species:S:1:pos:R:3 gdb_7686=T pbc="F F F"
C        0.03280000       1.56140000      -0.01690000
C        0.08710000       0.05420000      -0.01750000
O       -0.99660000      -0.58110000      -0.62340000
C        1.32350000      -0.74520000      -0.18880000
O        2.46010000      -0.03910000       0.35930000
C        1.92610000      -0.15970000       1.64960000
O        2.44200000       0.16250000       2.66840000
C        0.65670000      -0.79490000       1.17170000
H        0.95360000       1.99740000       0.37230000
H       -0.11870000       1.91990000      -1.03960000
H       -0.80150000       1.91500000       0.59960000
H       -1.80500000      -0.27770000      -0.19480000
H        1.50590000      -1.51840000      -0.92170000
H        0.06100000      -1.55270000       1.65770000
