17
Properties=species:S:1:pos:R:3 gdb_95104=T pbc="F F F"
C        0.16170000       1.56130000      -0.04490000
C        0.05580000       0.04660000       0.00330000
O        0.74050000      -0.49970000      -1.12390000
C        1.29360000      -1.76630000      -0.79840000
C        1.51630000      -1.73430000       0.69720000
O        2.16000000      -0.54150000       1.14290000
C        0.72040000      -0.60930000       1.21630000
C        0.10330000      -0.54730000       2.50660000
C       -0.44950000      -0.45800000       3.57030000
H        1.20970000       1.86210000       0.02730000
H       -0.24860000       1.93590000      -0.98600000
H       -0.39790000       2.00780000       0.78220000
H       -1.00200000      -0.26510000       0.00000000
H        0.60970000      -2.59450000      -1.04730000
H        2.21610000      -1.88890000      -1.37500000
H        1.71300000      -2.63770000       1.26760000
H       -0.92660000      -0.38780000       4.51660000
