19
Properties=species:S:1:pos:R:3 gdb_95917=T pbc="F F F"
C       -0.55940000       1.27030000       0.06860000
C        0.11210000      -0.08790000      -0.09660000
C        1.25920000      -0.14080000      -1.11300000
O        2.04180000      -1.28690000      -0.77840000
C        1.72090000      -1.72650000       0.53190000
C        0.83250000      -0.62980000       1.16420000
O        1.63150000       0.44210000       1.66760000
C       -0.06430000      -1.14510000       2.19670000
C       -0.77720000      -1.56800000       3.06780000
H        0.16410000       2.02650000       0.38020000
H       -1.01510000       1.59110000      -0.87360000
H       -1.34940000       1.22240000       0.82400000
H       -0.63500000      -0.83990000      -0.37520000
H        0.90370000      -0.24870000      -2.14330000
H        1.87490000       0.76700000      -1.04910000
H        1.18610000      -2.68580000       0.49510000
H        2.64010000      -1.86410000       1.11420000
H        2.04940000       0.14130000       2.48120000
H       -1.41330000      -1.93850000       3.83370000
