15
Properties=species:S:1:pos:R:3 gdb_66707=T pbc="F F F"
C       -0.00990000       1.51130000       0.05550000
C        0.03170000       0.02310000      -0.00640000
C        0.24650000      -1.00200000      -1.15800000
C        0.80090000      -1.99240000      -0.20090000
C        0.60190000      -1.00110000       0.97020000
C       -0.88300000      -1.01980000       0.62960000
C       -2.03730000      -0.88890000       1.43850000
N       -2.97420000      -0.75610000       2.10700000
N       -0.67220000      -2.01080000      -0.51690000
H        0.95800000       1.94440000      -0.21970000
H       -0.76960000       1.91590000      -0.62160000
H       -0.25250000       1.84560000       1.06930000
H        0.32740000      -0.90160000      -2.23330000
H        1.43030000      -2.86230000      -0.33730000
H        1.07990000      -0.85420000       1.92810000
