18
Properties=species:S:1:pos:R:3 gdb_96857=T pbc="F F F"
C        0.23380000       1.44250000      -0.16040000
N        0.34690000      -0.00880000      -0.16440000
C        0.51110000      -0.61720000       0.91280000
O        0.60180000      -0.16210000       2.22580000
C        0.84620000      -1.51560000       2.75100000
C       -0.15420000      -1.90940000       3.81340000
C        0.68010000      -2.04980000       1.32340000
C        0.08800000      -3.27520000       0.78680000
O        1.49390000      -3.00640000       0.69180000
H        0.97720000       1.85810000      -0.84890000
H       -0.75170000       1.72510000      -0.54720000
H        0.36850000       1.90000000       0.82650000
H        1.87830000      -1.58730000       3.10870000
H       -1.17630000      -1.84820000       3.42900000
H        0.03560000      -2.93510000       4.14650000
H       -0.06910000      -1.25040000       4.68240000
H       -0.18890000      -4.08040000       1.46540000
H       -0.45920000      -3.22820000      -0.15250000
