24
Properties=species:S:1:pos:R:3 gdb_89065=T pbc="F F F"
C       -0.61460000       1.19550000       0.25070000
N        0.02330000      -0.10760000       0.15160000
C        1.42140000      -0.14280000      -0.26180000
C        1.03760000      -0.51530000       1.13040000
C        1.45990000       0.32150000       2.32130000
C        0.53570000       0.15120000       3.53800000
C        1.00670000       0.92350000       4.75170000
C        0.64640000       2.38000000       4.91690000
C        0.03450000       1.34010000       5.82460000
H        0.04800000       2.01510000       0.57140000
H       -1.01540000       1.46090000      -0.73320000
H       -1.45480000       1.13900000       0.95090000
H        1.68940000      -0.89860000      -0.99610000
H        1.93700000       0.81020000      -0.38680000
H        0.97320000      -1.58010000       1.35940000
H        2.47890000       0.02020000       2.60080000
H        1.52560000       1.38110000       2.05330000
H       -0.48010000       0.47370000       3.27530000
H        0.45930000      -0.91670000       3.78510000
H        1.99930000       0.64420000       5.09880000
H        1.38500000       3.05690000       5.33210000
H        0.00750000       2.83100000       4.16390000
H       -1.01310000       1.09570000       5.68010000
H        0.35760000       1.30530000       6.85930000
