20
Properties=species:S:1:pos:R:3 gdb_120413=T pbc="F F F"
C       -0.33380000       1.27650000      -0.01900000
O        0.00030000      -0.09030000       0.03950000
C        0.56860000      -0.56880000      -1.15530000
C        0.83590000      -2.04730000      -0.99030000
O       -0.38830000      -2.85220000      -1.09390000
C        0.11060000      -3.55190000      -2.17110000
N       -0.40920000      -4.44640000      -2.87970000
C        1.45160000      -2.84210000      -2.17540000
C        1.86480000      -2.14000000      -3.46430000
H        0.55070000       1.90540000      -0.20890000
H       -1.07650000       1.48200000      -0.80560000
H       -0.75990000       1.54870000       0.94930000
H       -0.10580000      -0.39730000      -2.00960000
H        1.52000000      -0.05130000      -1.37390000
H        1.30750000      -2.22370000      -0.01950000
H       -1.35790000      -4.66300000      -2.56890000
H        2.25310000      -3.50650000      -1.83940000
H        1.08200000      -1.47410000      -3.83760000
H        2.77870000      -1.55500000      -3.32220000
H        2.05700000      -2.88720000      -4.23890000
