14
Properties=species:S:1:pos:R:3 gdb_43688=T pbc="F F F"
O        0.03280000       0.01120000       0.46530000
C        0.04150000       1.14700000       0.08180000
O       -1.16150000       1.76670000      -0.17400000
C       -1.16470000       3.01310000      -0.87420000
C       -0.11210000       3.99240000      -0.33750000
C        1.20920000       3.29160000      -0.21300000
C        1.26260000       1.96660000      -0.06540000
C       -0.98980000       2.78610000      -2.32410000
N       -0.86600000       2.63420000      -3.46220000
H       -2.17070000       3.41500000      -0.72490000
H       -0.04470000       4.85670000      -1.00480000
H       -0.43800000       4.37000000       0.64050000
H        2.11590000       3.88880000      -0.22910000
H        2.19150000       1.41970000       0.03820000
