17
Properties=species:S:1:pos:R:3 gdb_132546=T pbc="F F F"
C        0.00580000       1.51400000      -0.02110000
C        0.00990000       0.00820000       0.00880000
C       -0.00680000      -0.72520000      -1.17320000
N       -0.00470000      -2.06260000      -1.24510000
C        0.01480000      -2.70260000      -0.10240000
F        0.01700000      -4.03370000      -0.16700000
C        0.03290000      -2.10350000       1.15320000
C        0.03060000      -0.71490000       1.21960000
C        0.04970000      -0.00990000       2.54980000
H        0.89260000       1.93340000       0.46850000
H       -0.01160000       1.88280000      -1.04980000
H       -0.86700000       1.92920000       0.49660000
H       -0.02300000      -0.20300000      -2.12760000
H        0.04840000      -2.71690000       2.04650000
H        0.92900000       0.63770000       2.64310000
H       -0.82870000       0.63440000       2.67020000
H        0.06380000      -0.72300000       3.37700000
