19
Properties=species:S:1:pos:R:3 gdb_68871=T pbc="F F F"
C        0.08610000       1.46360000       0.02240000
C        0.03700000      -0.03980000      -0.02330000
C        1.25560000      -0.88000000      -0.37620000
C        0.68080000      -0.96130000       1.00370000
O        1.44840000      -0.55850000       2.08970000
C       -0.49450000      -1.95240000       1.19980000
C       -1.70870000      -0.99770000       1.36520000
C       -1.31970000      -0.78220000      -0.12540000
O       -0.94080000      -2.19280000      -0.16690000
H        1.02840000       1.80570000       0.46280000
H        0.00590000       1.90530000      -0.97740000
H       -0.73060000       1.87560000       0.62820000
H        1.16420000      -1.72050000      -1.05240000
H        2.18420000      -0.32190000      -0.44090000
H        0.88010000      -0.08960000       2.71170000
H       -0.33350000      -2.85260000       1.79300000
H       -2.65240000      -1.53280000       1.48210000
H       -1.63730000      -0.15400000       2.05950000
H       -2.03190000      -0.48940000      -0.89790000
