15
Properties=species:S:1:pos:R:3 gdb_22290=T pbc="F F F"
O       -0.05530000       1.39520000       0.19310000
N        0.07350000       0.01030000       0.01430000
C       -1.06930000      -0.56420000      -0.11490000
C       -1.04580000      -2.07210000      -0.25280000
C       -2.22290000      -2.68060000      -1.00480000
O       -2.19480000      -3.77210000      -1.52720000
N       -3.37910000      -1.91760000      -0.98580000
C       -3.44570000      -0.60720000      -0.53430000
C       -2.36970000       0.07830000      -0.11020000
H        0.86230000       1.67280000       0.27980000
H       -0.11910000      -2.41980000      -0.70990000
H       -1.08680000      -2.52110000       0.75120000
H       -4.18210000      -2.34230000      -1.42540000
H       -4.43530000      -0.16740000      -0.57400000
H       -2.45830000       1.11100000       0.19080000
