16
Properties=species:S:1:pos:R:3 gdb_127671=T pbc="F F F"
C        0.07440000       1.41590000       0.10630000
N        0.04360000      -0.03590000       0.10390000
N        0.00140000      -0.71600000      -1.06800000
C       -0.06590000      -1.97420000      -0.66520000
N       -0.07640000      -2.15000000       0.68200000
C       -0.01640000      -0.90800000       1.13960000
C        0.02420000      -0.51020000       2.58370000
C        1.44200000      -0.10460000       2.97180000
O        1.78680000       1.03500000       3.15030000
H        0.48300000       1.77150000       1.05290000
H        0.71360000       1.74770000      -0.71250000
H       -0.93050000       1.82420000      -0.03970000
H       -0.10710000      -2.79250000      -1.36850000
H       -0.64870000       0.32430000       2.79800000
H       -0.27790000      -1.38440000       3.16660000
H        2.16050000      -0.94830000       3.04640000
