15
Properties=species:S:1:pos:R:3 gdb_24784=T pbc="F F F"
O        0.06980000      -0.11850000       0.00100000
C       -0.01650000       1.09320000       0.00900000
C       -1.21010000       1.93330000       0.03010000
C       -1.14180000       3.29720000       0.03650000
N        0.02070000       4.04770000       0.02430000
C        1.06880000       3.29710000       0.00560000
C        2.58100000       3.41910000      -0.01500000
C        2.57340000       1.84590000      -0.02340000
N        1.10420000       1.93990000      -0.00210000
H       -2.16590000       1.42410000       0.04060000
H       -2.05790000       3.88110000       0.05240000
H        2.99430000       3.88790000      -0.90950000
H        3.01940000       3.87820000       0.87270000
H        2.96210000       1.37090000      -0.92610000
H        2.98740000       1.36120000       0.86270000
