14
Properties=species:S:1:pos:R:3 gdb_129033=T pbc="F F F"
N       -0.07590000       1.33740000       0.00810000
C       -0.03760000       0.05860000       0.00130000
C       -1.29190000      -0.67370000       0.00490000
C       -1.50500000      -2.00440000      -0.00070000
C       -0.54980000      -3.08510000      -0.01170000
N        0.73900000      -3.09660000      -0.01920000
N        1.50430000      -1.98490000      -0.01800000
C        1.32980000      -0.60760000      -0.01020000
O        2.32980000       0.08370000      -0.01280000
H        0.88880000       1.68790000       0.00420000
H       -2.15300000      -0.01230000       0.01320000
H       -2.54000000      -2.33540000       0.00360000
H       -0.97170000      -4.08740000      -0.01430000
H        2.49070000      -2.21440000      -0.02500000
