18
Properties=species:S:1:pos:R:3 gdb_55901=T pbc="F F F"
C       -0.12740000       1.45100000       0.05020000
C       -0.27390000      -0.02460000      -0.28410000
O        0.31310000      -0.56220000      -1.20080000
N       -1.12360000      -0.72490000       0.54140000
C       -1.21870000      -2.14990000       0.46510000
C       -2.46980000      -2.80080000       0.93910000
C       -2.14490000      -2.81360000      -0.55160000
C       -2.98220000      -1.99650000      -1.45990000
O       -3.32170000      -2.34420000      -2.56330000
H        0.05620000       2.00110000      -0.87340000
H       -1.00550000       1.86370000       0.55450000
H        0.74130000       1.59020000       0.70270000
H       -1.47780000      -0.27370000       1.36970000
H       -0.28020000      -2.67750000       0.61380000
H       -2.40700000      -3.73900000       1.47670000
H       -3.28330000      -2.15260000       1.25180000
H       -1.79670000      -3.74390000      -0.98490000
H       -3.30060000      -1.01660000      -1.03910000
