17
Properties=species:S:1:pos:R:3 gdb_2108=T pbc="F F F"
C       -0.02640000       1.53790000       0.01060000
C        0.01730000       0.00990000       0.00230000
C        0.72540000      -0.54130000      -1.24250000
O        0.84030000      -1.95630000      -1.18050000
C        1.51250000      -2.35650000      -0.01690000
O        0.85060000      -1.96880000       1.15670000
C        0.73630000      -0.55450000       1.23480000
H        0.98290000       1.96590000       0.00840000
H       -0.55260000       1.92350000      -0.86870000
H       -0.54470000       1.91410000       0.89870000
H       -1.00420000      -0.38960000       0.00470000
H        0.17020000      -0.31180000      -2.15650000
H        1.72860000      -0.08620000      -1.33050000
H        1.54400000      -3.44780000      -0.02290000
H        2.54090000      -1.94240000      -0.01920000
H        1.74030000      -0.10040000       1.31890000
H        0.18910000      -0.33490000       2.15610000
