19
Properties=species:S:1:pos:R:3 gdb_78647=T pbc="F F F"
C       -0.17670000       1.44290000       0.03080000
C        0.05190000      -0.06260000       0.06420000
C        0.86860000      -0.59300000      -1.12450000
C        2.15510000      -0.50370000      -0.36790000
C        1.26380000      -0.51250000       0.93970000
C        1.28850000      -2.04170000       0.76630000
O        1.34120000      -2.96970000       1.52650000
C        1.55860000      -1.89990000      -0.70080000
C        2.04230000      -2.94520000      -1.65860000
H        0.75850000       1.98030000      -0.15940000
H       -0.88730000       1.71310000      -0.75830000
H       -0.58440000       1.79710000       0.98310000
H       -0.88850000      -0.58700000       0.27770000
H        0.70130000      -0.40830000      -2.18000000
H        3.15010000      -0.14750000      -0.58570000
H        1.49080000      -0.04870000       1.89630000
H        1.22220000      -3.59870000      -1.97440000
H        2.47260000      -2.49310000      -2.55790000
H        2.80710000      -3.57300000      -1.19110000
