19
Properties=species:S:1:pos:R:3 gdb_64967=T pbc="F F F"
C        0.23140000       0.89420000      -0.98760000
C       -0.17940000      -0.27860000      -0.11770000
C        0.76480000      -1.47950000      -0.02570000
C        0.63410000      -0.56230000       1.14090000
C       -1.62820000      -0.64870000      -0.00490000
O       -2.01920000      -1.48830000       0.77530000
C       -2.64790000       0.06520000      -0.92130000
C       -2.51480000      -0.34170000      -2.31400000
C       -2.39630000      -0.70520000      -3.45380000
H        1.32050000       0.99660000      -0.98860000
H       -0.09190000       0.76630000      -2.02440000
H       -0.18000000       1.83950000      -0.61530000
H        0.29640000      -2.45380000       0.04690000
H        1.66100000      -1.43460000      -0.63460000
H        1.44230000       0.12780000       1.35640000
H        0.07690000      -0.92090000       1.99800000
H       -3.64000000      -0.19450000      -0.54110000
H       -2.52560000       1.15210000      -0.83630000
H       -2.30270000      -1.02090000      -4.46330000
