13
Properties=species:S:1:pos:R:3 gdb_8252=T pbc="F F F"
O        0.18570000       0.12130000      -0.74900000
C        0.03330000       1.14530000      -0.17220000
C       -1.11450000       2.08760000       0.19910000
C        0.00550000       2.92230000       0.84610000
C       -0.03770000       3.07820000       2.36430000
C        1.17110000       3.69930000       2.90250000
N        2.12180000       4.20400000       3.32080000
O        0.99480000       1.92670000       0.43060000
H       -1.62530000       2.53700000      -0.65320000
H       -1.84860000       1.65350000       0.88100000
H        0.21680000       3.87600000       0.35790000
H       -0.90180000       3.69660000       2.63480000
H       -0.17730000       2.09670000       2.83080000
