22
Properties=species:S:1:pos:R:3 gdb_82534=T pbc="F F F"
C       -0.04790000       1.59180000       0.05800000
C        0.04560000       0.08630000       0.15900000
N        1.21620000      -0.72010000      -0.27300000
C        2.45650000       0.03750000       0.12730000
C        2.04900000       0.01660000       1.60050000
C        2.93010000      -0.33710000       2.75920000
C        2.27660000       1.02480000       2.69190000
C        0.76940000      -0.69170000       1.19410000
C        0.19540000      -1.88910000       1.89360000
H        0.77970000       2.10780000       0.54730000
H       -0.07850000       1.90590000      -0.99150000
H       -0.97460000       1.93380000       0.53120000
H       -0.85960000      -0.40980000      -0.19040000
H        3.33690000      -0.57080000      -0.09530000
H        2.56780000       1.01260000      -0.35920000
H        2.55620000      -1.04400000       3.49330000
H        3.99940000      -0.40420000       2.58350000
H        2.90420000       1.88230000       2.46960000
H        1.46250000       1.23540000       3.37840000
H       -0.30050000      -1.59960000       2.82830000
H       -0.54640000      -2.38440000       1.26070000
H        0.97570000      -2.61780000       2.13720000
