18
Properties=species:S:1:pos:R:3 gdb_102059=T pbc="F F F"
C        0.08390000       1.59500000       0.01160000
C        0.00220000       0.05420000       0.05160000
C        0.72620000      -0.44810000       1.22640000
N        1.29760000      -0.82960000       2.15560000
C       -1.45040000      -0.49620000       0.03980000
C       -2.23420000      -0.01650000      -1.20110000
O       -3.44100000      -0.72990000      -1.38010000
C       -1.45100000      -2.02130000       0.03850000
O       -2.04300000      -2.69810000       0.83350000
H        1.12350000       1.92040000       0.09320000
H       -0.32010000       1.98010000      -0.92680000
H       -0.47620000       2.03480000       0.84150000
H        0.52080000      -0.34330000      -0.83180000
H       -1.96860000      -0.17670000       0.95140000
H       -2.40860000       1.06630000      -1.13790000
H       -1.64560000      -0.20110000      -2.10790000
H       -3.97480000      -0.63980000      -0.58310000
H       -0.85730000      -2.47740000      -0.78810000
