20
Properties=species:S:1:pos:R:3 gdb_115929=T pbc="F F F"
C        0.04590000       1.35260000       0.16160000
O       -0.02150000      -0.06370000       0.10060000
C       -1.30530000      -0.56920000       0.02150000
C       -1.20490000      -2.07080000      -0.25610000
N       -2.41620000      -2.83920000       0.07700000
C       -2.63960000      -3.14840000       1.49180000
C       -3.49940000      -2.15700000       0.79950000
C       -3.34770000      -0.68550000       1.13500000
O       -1.98350000      -0.32890000       1.24960000
H        1.10500000       1.61750000       0.16530000
H       -0.43520000       1.81000000      -0.71570000
H       -0.43080000       1.73730000       1.06920000
H       -1.87790000      -0.05830000      -0.78010000
H       -0.98590000      -2.21870000      -1.31920000
H       -0.35340000      -2.45790000       0.31220000
H       -3.00480000      -4.15130000       1.69800000
H       -1.92540000      -2.75630000       2.21270000
H       -4.50020000      -2.44580000       0.48070000
H       -3.83690000      -0.07360000       0.35770000
H       -3.82170000      -0.44980000       2.09340000
