16
Properties=species:S:1:pos:R:3 gdb_22743=T pbc="F F F"
O       -0.11150000       1.33510000      -0.00550000
N        0.02200000      -0.06330000      -0.01360000
C       -1.11650000      -0.64390000       0.01840000
C       -1.23990000      -2.15840000      -0.00040000
C       -2.75360000      -2.38550000      -0.06560000
C       -3.39480000      -3.54230000      -0.71240000
O       -3.32590000      -3.45120000       0.70940000
C       -3.38460000      -1.04340000       0.02240000
C       -2.46270000      -0.06960000       0.06310000
H        0.80620000       1.62530000      -0.02700000
H       -0.70380000      -2.59830000      -0.84490000
H       -0.84120000      -2.60420000       0.91570000
H       -4.39110000      -3.44470000      -1.14330000
H       -2.76720000      -4.30850000      -1.16720000
H       -4.46000000      -0.91530000       0.05220000
H       -2.64430000       0.99390000       0.11580000
