15
Properties=species:S:1:pos:R:3 gdb_24575=T pbc="F F F"
O       -0.05820000       1.32330000       0.05190000
C        0.97620000       2.22180000      -0.02460000
N        2.03530000       2.20750000      -0.69340000
C        2.69720000       1.23030000      -1.39960000
C        3.27100000       0.10950000      -0.91210000
C        3.14340000      -0.43670000       0.42280000
C        2.00620000      -0.77850000       1.06540000
N        0.74160000      -0.87850000       0.53390000
C       -0.05240000      -0.04890000       0.03350000
H        0.68240000       3.11770000       0.51760000
H        2.96070000       1.55080000      -2.40510000
H        3.99200000      -0.37290000      -1.56880000
H        4.06810000      -0.70370000       0.93010000
H        2.08620000      -1.25550000       2.03970000
H       -0.99420000      -0.38210000      -0.39670000
