17
Properties=species:S:1:pos:R:3 gdb_45993=T pbc="F F F"
N        0.21220000       1.03920000      -0.80660000
C        0.13300000      -0.12410000      -0.31370000
O        0.64420000      -0.50020000       0.91070000
C        0.36770000      -1.87960000       1.13690000
C       -0.38510000      -2.34420000      -0.08590000
C       -0.49990000      -1.29950000      -0.91580000
C       -0.85780000      -3.73310000      -0.21360000
C       -2.30870000      -4.00990000      -0.47160000
N       -1.30960000      -4.27930000      -1.50380000
H        0.71000000       1.66470000      -0.17180000
H        1.31160000      -2.42430000       1.27670000
H       -0.22080000      -1.98790000       2.05820000
H       -0.96570000      -1.25320000      -1.88950000
H       -0.31350000      -4.45570000       0.39090000
H       -2.77030000      -4.89030000      -0.03310000
H       -2.96090000      -3.14760000      -0.57790000
H       -1.31560000      -3.54480000      -2.20730000
