16
Properties=species:S:1:pos:R:3 gdb_60762=T pbc="F F F"
C       -0.30120000       1.54340000      -0.00500000
C        0.12450000       0.05610000      -0.09020000
C       -1.11690000      -0.80450000       0.14780000
O       -1.39510000      -1.27460000       1.21720000
C        0.68880000      -0.22790000      -1.46340000
O        0.04450000      -0.24240000      -2.47880000
O        2.03520000      -0.46420000      -1.39870000
C        2.70360000      -0.72850000      -2.57520000
N        3.94200000      -0.92610000      -2.50800000
H        0.56370000       2.19630000      -0.14930000
H       -1.04320000       1.77590000      -0.77360000
H       -0.73100000       1.74590000       0.97880000
H        0.86160000      -0.16970000       0.68150000
H       -1.76600000      -0.92810000      -0.74440000
H        2.04620000      -0.73230000      -3.44440000
H        4.31480000      -1.11120000      -3.43830000
