14
Properties=species:S:1:pos:R:3 gdb_18318=T pbc="F F F"
O       -0.13520000      -0.02980000      -0.25510000
C       -0.03240000       1.15080000      -0.03400000
N       -1.09630000       2.04020000       0.15730000
C       -0.65850000       3.33330000       0.48210000
C        0.65330000       3.44730000       0.22980000
C        1.87800000       3.77510000       1.05930000
N        2.10890000       2.28550000       1.12040000
C        1.20480000       2.07650000      -0.06210000
H       -2.05400000       1.72810000       0.16110000
H       -1.33280000       4.01280000       0.98660000
H        2.66600000       4.31570000       0.51810000
H        1.72020000       4.24670000       2.03350000
H        3.06900000       2.01990000       0.91800000
H        1.74010000       1.91440000      -1.00560000
