18
Properties=species:S:1:pos:R:3 gdb_45882=T pbc="F F F"
O        0.16010000      -0.06380000       0.11830000
C        0.01750000       1.13450000       0.05320000
C       -1.35050000       1.80010000       0.09580000
C       -1.57770000       2.63690000       1.33790000
C       -0.72010000       2.89850000       2.32480000
C        0.70850000       2.40330000       2.42770000
N        1.51330000       2.79500000       1.25840000
C        2.43140000       1.78860000       0.71620000
C        1.17390000       2.10820000       0.00170000
H       -1.45710000       2.44700000      -0.78790000
H       -2.11830000       1.02220000       0.01830000
H       -2.57950000       3.05570000       1.40550000
H       -1.07030000       3.51570000       3.14750000
H        1.18850000       2.83930000       3.30850000
H        0.70840000       1.31060000       2.58030000
H        3.38060000       2.17100000       0.35280000
H        2.47650000       0.81510000       1.20020000
H        1.17640000       2.76120000      -0.87070000
