21
Properties=species:S:1:pos:R:3 gdb_64093=T pbc="F F F"
C       -0.06020000       1.52890000       0.01840000
C       -0.05600000      -0.00230000      -0.00050000
C       -1.49890000      -0.53300000      -0.01450000
C        0.71500000      -0.49430000      -1.23430000
O        0.94820000      -1.91230000      -1.23100000
C        1.38120000      -2.50490000      -0.07740000
N        2.07640000      -3.56180000      -0.08990000
C        0.87670000      -1.91070000       1.22510000
N        0.63380000      -0.46840000       1.21840000
H        0.96000000       1.92910000       0.04920000
H       -0.55250000       1.93460000      -0.87080000
H       -0.59080000       1.88880000       0.90400000
H       -2.06260000      -0.07460000      -0.83270000
H       -1.53490000      -1.61550000      -0.15920000
H       -1.99490000      -0.29230000       0.92930000
H        0.17220000      -0.29710000      -2.16350000
H        1.68590000       0.01930000      -1.29010000
H        2.27270000      -3.83920000      -1.05490000
H       -0.05960000      -2.42710000       1.47310000
H        1.58620000      -2.16270000       2.01460000
H        1.52540000       0.01530000       1.28610000
