12
Properties=species:S:1:pos:R:3 gdb_5054=T pbc="F F F"
O       -0.07260000       0.29240000      -0.98560000
C       -0.04760000       1.25120000      -0.25050000
C       -1.29580000       1.84510000       0.30140000
C       -1.55040000       3.16660000       0.22390000
C       -0.62090000       4.16110000      -0.27980000
N        0.67020000       4.13790000      -0.29490000
C        1.38590000       3.07230000       0.22290000
N        1.13480000       1.81710000       0.22430000
H       -2.05930000       1.14800000       0.63530000
H       -2.54310000       3.53260000       0.47430000
H       -1.07680000       5.07610000      -0.66520000
H        2.34150000       3.38390000       0.64750000
