23
Properties=species:S:1:pos:R:3 gdb_85859=T pbc="F F F"
C       -0.68220000       1.44330000       0.15530000
C       -0.09130000       0.04660000      -0.01680000
C       -1.15570000      -0.93430000      -0.52100000
C        1.22940000      -0.03180000      -0.85500000
C        1.86530000      -0.93130000       0.24100000
O        3.19280000      -0.69330000       0.64310000
C        0.71480000      -0.52790000       1.17670000
C        0.93340000       0.11020000       2.52030000
C        0.23780000      -1.22700000       2.41100000
H        0.06890000       2.15710000       0.50770000
H       -1.07850000       1.81540000      -0.79650000
H       -1.50920000       1.44280000       0.87570000
H       -1.56460000      -0.60260000      -1.48230000
H       -0.74600000      -1.93980000      -0.65970000
H       -1.98830000      -1.01140000       0.18730000
H        1.15860000      -0.44280000      -1.86550000
H        1.73630000       0.93790000      -0.90590000
H        1.83370000      -1.99300000      -0.02290000
H        3.26090000       0.23780000       0.88160000
H        1.94710000       0.11770000       2.90990000
H        0.33940000       0.97660000       2.79170000
H       -0.83050000      -1.25840000       2.60310000
H        0.77630000      -2.11190000       2.73680000
