21
Properties=species:S:1:pos:R:3 gdb_38300=T pbc="F F F"
C       -0.00470000       1.45690000      -0.29260000
C        1.52320000       1.30070000      -0.05310000
C        1.14820000       0.12200000       0.89940000
C       -0.14400000      -0.05750000       0.04430000
C        0.12410000      -1.01290000      -1.15890000
C        0.33890000      -0.33060000      -2.52760000
C        1.81850000      -0.34270000      -2.08650000
C        2.33060000       0.87590000      -1.29860000
O        1.51470000      -1.45120000      -1.19620000
H       -0.45260000       2.05680000       0.50530000
H       -0.36350000       1.84500000      -1.24730000
H        2.03020000       2.15370000       0.40830000
H        1.82950000      -0.72260000       0.97720000
H        0.90020000       0.50050000       1.89500000
H       -1.05630000      -0.35950000       0.56480000
H       -0.54710000      -1.87520000      -1.12590000
H        0.18050000      -1.03920000      -3.34300000
H       -0.15670000       0.60950000      -2.76200000
H        2.55520000      -0.63030000      -2.84430000
H        2.40340000       1.72550000      -1.99220000
H        3.35600000       0.64950000      -0.97900000
