21
Properties=species:S:1:pos:R:3 gdb_89762=T pbc="F F F"
C       -0.30010000       1.47400000      -0.04160000
C       -0.00070000      -0.01900000      -0.03150000
C        1.21860000      -0.43810000      -0.91050000
C        2.05740000      -0.57230000       0.36380000
C        3.31330000      -1.34980000       0.60570000
C        3.32820000       0.16180000       0.66730000
C        0.78020000      -0.54220000       1.23800000
C        0.77860000       0.24060000       2.45560000
C        0.79830000       0.89680000       3.46450000
H        0.60410000       2.06280000       0.14350000
H       -0.70590000       1.77390000      -1.01380000
H       -1.02910000       1.73820000       0.73040000
H       -0.91620000      -0.58370000      -0.22660000
H        1.06500000      -1.39200000      -1.42520000
H        1.55480000       0.30290000      -1.64170000
H        3.40300000      -1.89700000       1.53920000
H        3.78460000      -1.83520000      -0.24340000
H        3.80820000       0.70300000      -0.14220000
H        3.41740000       0.63170000       1.64150000
H        0.46070000      -1.56640000       1.46550000
H        0.80460000       1.47140000       4.35730000
