19
Properties=species:S:1:pos:R:3 gdb_106840=T pbc="F F F"
O       -0.09290000       1.20900000       0.70410000
C        0.03200000      -0.01160000      -0.00920000
C       -1.30720000      -0.60600000      -0.31440000
C       -2.37140000      -0.15020000      -1.32550000
C       -2.92020000      -1.61970000      -1.34210000
C       -1.82520000      -1.99310000      -0.33010000
C       -1.20550000      -3.32580000      -0.04730000
O       -2.10630000      -4.18130000       0.63900000
O       -2.03530000      -1.13730000       0.81580000
H       -0.59830000       1.01410000       1.50140000
H        0.55700000       0.23100000      -0.93900000
H        0.64040000      -0.74350000       0.54270000
H       -3.04650000       0.62690000      -0.96230000
H       -1.94790000       0.15360000      -2.28570000
H       -3.94200000      -1.77120000      -0.98930000
H       -2.79240000      -2.10770000      -2.31120000
H       -0.95870000      -3.83280000      -0.98590000
H       -0.27190000      -3.18310000       0.51690000
H       -2.36690000      -3.72120000       1.44490000
