17
Properties=species:S:1:pos:R:3 gdb_85013=T pbc="F F F"
C       -0.29300000       1.53910000      -0.11600000
C        0.05860000       0.06220000       0.05140000
C        0.61310000      -0.64270000      -1.21980000
C        1.84390000      -1.41650000      -0.76200000
O        2.75220000      -1.83370000      -1.43650000
C        1.84550000      -1.48950000       0.75860000
O        3.08300000      -1.74020000       1.32480000
C        1.14710000      -0.16900000       1.12040000
O        1.41680000       0.56230000       2.03100000
H        0.56790000       2.10450000      -0.48690000
H       -1.11740000       1.66720000      -0.82330000
H       -0.58380000       1.97110000       0.84410000
H       -0.83120000      -0.47830000       0.40190000
H       -0.10970000      -1.32230000      -1.68220000
H        0.91670000       0.06860000      -1.99490000
H        1.10100000      -2.27190000       1.02110000
H        3.66220000      -1.99590000       0.59020000
