13
Properties=species:S:1:pos:R:3 gdb_874=T pbc="F F F"
N        0.17170000       1.41000000       0.08660000
C       -0.01280000       0.00900000       0.00330000
C       -1.10320000      -0.81800000      -0.10490000
C       -0.63530000      -2.17090000      -0.14660000
C        0.73520000      -2.10970000      -0.06110000
O        1.71340000      -3.05420000      -0.05110000
N        1.11260000      -0.80460000       0.02890000
H       -0.19470000       1.88770000      -0.73000000
H       -0.29250000       1.80370000       0.89830000
H       -2.13300000      -0.49660000      -0.15020000
H       -1.23040000      -3.06750000      -0.22860000
H        1.29450000      -3.91710000      -0.12070000
H        2.05710000      -0.46750000       0.10300000
