17
Properties=species:S:1:pos:R:3 gdb_70407=T pbc="F F F"
C       -0.02440000       1.63390000      -0.03640000
C        0.05940000       0.12620000       0.02030000
O        1.11210000      -0.45550000      -0.82410000
C        1.60690000      -1.23380000       0.26890000
C        2.14200000      -0.33330000       1.34880000
C        0.65560000      -0.60050000       1.24660000
O       -0.10270000      -1.18100000       2.24010000
C       -1.24930000      -0.55720000      -0.37540000
O       -2.31840000      -0.00920000      -0.40780000
H        0.88630000       2.09680000       0.34930000
H       -0.17330000       1.96460000      -1.06830000
H       -0.88360000       1.97540000       0.54700000
H        1.91660000      -2.25350000       0.07930000
H        2.60400000      -0.86210000       2.17760000
H        2.58260000       0.62630000       1.09560000
H       -0.15630000      -0.57150000       2.98510000
H       -1.11830000      -1.62540000      -0.64980000
