18
Properties=species:S:1:pos:R:3 gdb_51489=T pbc="F F F"
O       -0.12320000      -0.06860000      -0.35010000
C        0.02410000       1.09420000      -0.06940000
C        1.33010000       1.84330000      -0.16800000
C        1.31240000       2.96110000      -1.24170000
C        0.27550000       4.05590000      -1.02380000
C        0.81740000       5.27470000      -0.98030000
C        2.30210000       5.19560000      -1.10950000
N        2.92640000       4.43360000       0.01240000
C        2.62420000       3.75280000      -1.26360000
H       -0.83770000       1.70170000       0.29250000
H        1.54420000       2.31790000       0.79750000
H        2.11960000       1.12020000      -0.39340000
H        1.15540000       2.48660000      -2.22050000
H       -0.78050000       3.84220000      -0.90610000
H        0.27810000       6.20390000      -0.84210000
H        2.87500000       5.98330000      -1.58640000
H        3.92370000       4.64050000       0.03450000
H        3.44760000       3.40270000      -1.87670000
