17
Properties=species:S:1:pos:R:3 gdb_71408=T pbc="F F F"
C       -0.01630000       1.38770000      -0.07600000
C        0.04220000      -0.09910000      -0.00070000
O       -0.44900000      -0.87080000      -1.10630000
C       -0.39020000      -2.02970000      -0.23010000
C       -0.34030000      -1.09780000       1.03670000
C        1.15170000      -0.92710000       0.68130000
C        1.11560000      -2.24800000      -0.04070000
C        1.84010000      -3.48250000       0.23260000
O        2.01550000      -2.74920000      -0.99830000
H        0.61260000       1.75450000      -0.89360000
H       -1.04190000       1.72700000      -0.24960000
H        0.34310000       1.83020000       0.85760000
H       -1.09390000      -2.81860000      -0.48420000
H       -0.86170000      -1.06910000       1.98230000
H        1.93950000      -0.49090000       1.28080000
H        2.69600000      -3.47350000       0.90620000
H        1.34260000      -4.44660000       0.13090000
