11
Properties=species:S:1:pos:R:3 gdb_5421=T pbc="F F F"
O       -0.16500000      -0.01540000       0.00220000
C       -0.06190000       1.17680000       0.00960000
N        1.14360000       1.88740000       0.00210000
C        1.25540000       3.28940000       0.01150000
C        2.55740000       3.57190000      -0.00000000
O        3.30270000       2.41470000      -0.01640000
C        2.44490000       1.33140000      -0.01580000
O        2.79190000       0.19430000      -0.02780000
H       -0.91920000       1.87670000       0.02440000
H        0.39110000       3.93090000       0.02550000
H        3.10310000       4.49900000       0.00130000
