20
Properties=species:S:1:pos:R:3 gdb_87643=T pbc="F F F"
C       -0.07400000       1.48740000      -0.09510000
C        0.11380000      -0.01370000      -0.07600000
C        1.51860000      -0.61420000      -0.02620000
C        0.61110000      -0.70230000       1.14970000
O        0.89120000       0.04110000       2.36500000
C        0.37550000      -0.98380000       3.13770000
N        0.22550000      -1.07400000       4.37880000
C        0.06620000      -1.88520000       1.95420000
C       -1.38670000      -2.30370000       1.76770000
H        0.63780000       1.97800000       0.57420000
H        0.07030000       1.88840000      -1.10360000
H       -1.08090000       1.76210000       0.23630000
H       -0.61360000      -0.57620000      -0.65750000
H        1.73040000      -1.51640000      -0.59120000
H        2.34900000       0.08120000       0.04790000
H        0.55110000      -0.23170000       4.85620000
H        0.72930000      -2.75560000       1.92760000
H       -2.05260000      -1.43610000       1.78100000
H       -1.52510000      -2.82870000       0.81700000
H       -1.68920000      -2.97580000       2.57530000
