16
Properties=species:S:1:pos:R:3 gdb_80155=T pbc="F F F"
C       -0.15790000       1.50700000       0.10900000
C       -0.02250000       0.01750000      -0.09400000
C        0.72460000      -0.61800000      -1.21500000
C        1.66940000       0.16690000      -2.11030000
C        2.84870000       0.51330000      -1.19860000
O        3.88000000       1.04700000      -1.48940000
C        2.42960000       0.10000000       0.24730000
O        2.99540000       0.43610000       1.25040000
N        1.26300000      -0.68780000       0.16930000
H        0.63130000       2.08230000      -0.38190000
H       -1.11990000       1.84430000      -0.28930000
H       -0.12930000       1.75040000       1.17550000
H       -0.86430000      -0.55330000       0.29250000
H        0.35640000      -1.56670000      -1.59480000
H        2.01970000      -0.43370000      -2.95420000
H        1.23850000       1.08290000      -2.52770000
