19
Properties=species:S:1:pos:R:3 gdb_124626=T pbc="F F F"
C       -0.12460000       1.51090000      -0.06600000
C        0.00660000      -0.01780000      -0.00250000
C        0.78380000      -0.47900000       1.23070000
N       -1.29600000      -0.69660000      -0.01110000
C       -2.08920000      -0.73110000      -1.12040000
C       -3.41660000      -1.03160000      -1.30780000
C       -3.56220000      -0.94890000      -2.71170000
N       -2.45730000      -0.62710000      -3.33740000
O       -1.50000000      -0.48370000      -2.29920000
H        0.86380000       1.98030000      -0.09970000
H       -0.67620000       1.81580000      -0.95870000
H       -0.65080000       1.89380000       0.81610000
H        0.53250000      -0.35950000      -0.89910000
H        0.27160000      -0.17560000       2.15240000
H        0.89310000      -1.56660000       1.24150000
H        1.77930000      -0.02730000       1.24510000
H       -1.80650000      -0.65750000       0.85880000
H       -4.15530000      -1.27620000      -0.56430000
H       -4.45490000      -1.11550000      -3.29990000
