20
Properties=species:S:1:pos:R:3 gdb_107008=T pbc="F F F"
C       -0.12450000       1.59460000      -0.09710000
C       -0.03010000       0.09350000       0.12660000
C        0.52260000      -0.79040000      -0.99780000
N        1.95090000      -0.40650000      -1.17740000
C        1.57370000      -1.36880000      -0.11580000
C        2.18370000      -2.74060000      -0.07470000
O        2.26490000      -3.32720000      -1.36880000
C        1.13860000      -0.46310000       1.05100000
O        2.10440000       0.43580000       1.51790000
H        0.79400000       1.98240000      -0.54430000
H       -0.95500000       1.83740000      -0.76870000
H       -0.28930000       2.11890000       0.84910000
H       -0.98550000      -0.30510000       0.48410000
H       -0.02030000      -1.24740000      -1.81790000
H        2.31890000      -0.97360000      -1.94190000
H        3.21510000      -2.68290000       0.29210000
H        1.62560000      -3.38020000       0.62550000
H        1.36970000      -3.55220000      -1.64270000
H        0.75620000      -1.00830000       1.91770000
H        2.55730000       0.75510000       0.72460000
