23
Properties=species:S:1:pos:R:3 gdb_91422=T pbc="F F F"
C        0.70080000       1.41430000      -0.41290000
C        0.03170000       0.11420000       0.04690000
O       -0.10080000      -0.73970000      -1.10820000
C        0.68800000      -1.91310000      -1.12660000
C        0.37950000      -2.80180000       0.10590000
C        1.39660000      -1.89480000       0.85150000
C        2.10060000      -1.69060000      -0.52110000
C        0.68150000      -0.60280000       1.28730000
C        1.59880000       0.29870000       2.12320000
H        1.75220000       1.27510000      -0.67760000
H        0.17740000       1.77390000      -1.30290000
H        0.63960000       2.19060000       0.35550000
H       -0.99870000       0.37110000       0.32190000
H        0.58800000      -2.32700000      -2.13220000
H       -0.65620000      -2.81850000       0.45630000
H        0.74910000      -3.82300000      -0.02110000
H        1.97040000      -2.32280000       1.67820000
H        2.76550000      -2.52450000      -0.76140000
H        2.61370000      -0.74990000      -0.73000000
H       -0.14320000      -0.91270000       1.94260000
H        2.48610000       0.61430000       1.56580000
H        1.08320000       1.19960000       2.46960000
H        1.94190000      -0.24470000       3.00990000
