14
Properties=species:S:1:pos:R:3 gdb_24047=T pbc="F F F"
N        0.19730000      -0.89420000      -0.62680000
C        0.14510000       0.18050000      -0.20490000
C        0.09480000       1.55240000       0.33300000
N        1.38270000       2.22440000       0.29520000
C        1.76570000       2.67280000      -0.83080000
N        2.94040000       3.33450000      -1.09220000
C        2.99880000       3.66630000      -2.44380000
C        1.86690000       3.21980000      -2.99620000
O        1.08960000       2.60560000      -2.02630000
H       -0.69070000       2.09260000      -0.21610000
H       -0.23040000       1.48710000       1.37630000
H        3.64140000       3.48970000      -0.39060000
H        3.83540000       4.18630000      -2.87650000
H        1.46820000       3.24040000      -3.99400000
