17
Properties=species:S:1:pos:R:3 gdb_80703=T pbc="F F F"
C       -0.10840000       1.51800000      -0.17050000
C        0.02490000       0.02500000       0.03480000
C        1.29960000      -0.75260000      -0.16110000
O        2.44180000       0.00090000       0.26950000
C        1.99480000      -0.04700000       1.63520000
C        1.98070000       1.24400000       2.40850000
O        2.29920000       2.32750000       1.99370000
C        0.66040000      -0.70180000       1.20970000
O        0.04730000      -1.69420000       1.94070000
H        0.84160000       2.02440000       0.00500000
H       -0.42020000       1.72540000      -1.19950000
H       -0.85990000       1.95140000       0.49810000
H       -0.82370000      -0.56800000      -0.30820000
H        1.46350000      -1.55500000      -0.87000000
H        2.58150000      -0.78080000       2.21050000
H        1.63220000       1.09880000       3.45960000
H       -0.77520000      -1.34820000       2.30350000
