14
Properties=species:S:1:pos:R:3 gdb_123495=T pbc="F F F"
C       -0.02950000       1.30330000       0.00960000
C        1.25580000       1.83690000       0.00050000
C        1.88740000       3.10200000       0.00180000
C        3.25470000       3.16390000      -0.01080000
C        4.03270000       1.97000000      -0.02500000
C        3.42300000       0.75270000      -0.02620000
N        2.05710000       0.70610000      -0.01350000
N        1.30840000      -0.42540000      -0.01290000
N        0.05450000      -0.04160000       0.00130000
H       -0.97710000       1.81610000       0.02150000
H        1.27700000       3.99680000       0.01260000
H        3.75720000       4.12420000      -0.01010000
H        5.11420000       2.01870000      -0.03500000
H        3.92210000      -0.20630000      -0.03640000
