18
Properties=species:S:1:pos:R:3 gdb_115430=T pbc="F F F"
C        0.27340000       0.92980000       0.52920000
O        0.10130000      -0.34210000      -0.05680000
C        0.40780000      -0.39880000      -1.43610000
C        1.91380000      -0.48960000      -1.71080000
O        2.27390000      -1.85130000      -1.47990000
C        1.11520000      -2.67890000      -1.56200000
C       -0.06710000      -1.75950000      -1.94980000
C        1.33470000      -3.76060000      -2.53480000
N        1.48670000      -4.61570000      -3.29660000
H        1.32050000       1.26490000       0.51290000
H       -0.34120000       1.69100000       0.02440000
H       -0.04760000       0.84820000       1.56980000
H       -0.05890000       0.44120000      -1.97070000
H        2.13400000      -0.19980000      -2.74880000
H        2.51400000       0.13420000      -1.04290000
H        0.94200000      -3.13570000      -0.57970000
H       -1.00480000      -2.06570000      -1.48630000
H       -0.19340000      -1.73410000      -3.03430000
