14
Properties=species:S:1:pos:R:3 gdb_5433=T pbc="F F F"
C        0.09620000       1.48030000       0.06960000
C       -0.03590000       0.00280000       0.05110000
C       -1.12310000      -0.83190000      -0.02920000
C       -0.59640000      -2.17660000      -0.00160000
C        0.74670000      -2.05060000       0.09180000
O        1.10200000      -0.73340000       0.12480000
C       -2.47840000      -0.44100000      -0.12010000
C       -3.63630000      -0.11740000      -0.19770000
H        0.70010000       1.83880000      -0.77170000
H       -0.89540000       1.93220000       0.00350000
H        0.57740000       1.82770000       0.99090000
H       -1.16660000      -3.09020000      -0.04680000
H        1.56010000      -2.75470000       0.14340000
H       -4.65610000       0.16930000      -0.26610000
