22
Properties=species:S:1:pos:R:3 gdb_88383=T pbc="F F F"
C       -0.90820000       0.80990000       0.02650000
N        0.05850000      -0.27990000      -0.00600000
C        1.40070000      -0.02220000      -0.51400000
C        1.18190000      -0.36830000       0.91910000
C        1.51800000       0.58200000       2.08630000
C        0.46390000       0.41630000       3.20790000
C        2.90720000       0.15240000       2.62760000
C        1.61290000       1.99420000       1.70040000
C        1.74680000       3.16350000       1.45000000
H       -0.49340000       1.78930000       0.29420000
H       -1.36330000       0.88860000      -0.96640000
H       -1.70500000       0.56140000       0.73560000
H        1.79940000      -0.75340000      -1.21390000
H        1.67660000       1.01050000      -0.72190000
H        1.37310000      -1.39890000       1.22190000
H        0.38940000      -0.63760000       3.49510000
H        0.74790000       0.99610000       4.09070000
H       -0.52170000       0.75330000       2.88040000
H        3.67100000       0.23890000       1.85060000
H        3.19980000       0.78400000       3.47040000
H        2.87350000      -0.88730000       2.96890000
H        1.84820000       4.19310000       1.20970000
