21
Properties=species:S:1:pos:R:3 gdb_65136=T pbc="F F F"
C        0.08740000       1.29220000      -1.00700000
C       -0.00120000       0.10120000      -0.07630000
C        1.14360000      -0.81850000       0.03700000
O        0.88920000       0.16010000       1.04810000
C       -1.39780000      -0.41770000       0.15080000
C       -1.94880000      -1.15660000       1.34050000
C       -1.44520000      -0.62340000       2.69160000
C       -1.92690000       0.80780000       2.29300000
C       -2.47220000       0.24390000       0.97000000
H        1.12610000       1.60650000      -1.13580000
H       -0.32990000       1.04900000      -1.99030000
H       -0.48300000       2.13500000      -0.60290000
H        0.97270000      -1.85080000       0.33860000
H        2.03860000      -0.64770000      -0.56030000
H       -1.80630000      -0.81360000      -0.77990000
H       -2.43850000      -2.11480000       1.20470000
H       -2.03760000      -1.02560000       3.51720000
H       -0.38580000      -0.74880000       2.91170000
H       -2.71740000       1.17950000       2.94850000
H       -1.15480000       1.57660000       2.20700000
H       -3.42390000       0.51590000       0.52760000
