17
Properties=species:S:1:pos:R:3 gdb_56689=T pbc="F F F"
N       -0.11310000       1.57490000      -0.08580000
C       -0.04690000       0.13130000      -0.00240000
C        0.18370000      -0.46510000       1.40610000
O       -0.96850000      -1.32210000       1.26240000
C       -1.40780000      -0.59180000       0.09870000
C        0.85180000      -0.54320000      -1.07070000
O        0.40250000      -0.29300000      -2.38760000
C        2.25290000      -0.10930000      -0.89130000
N        3.32430000       0.29770000      -0.73980000
H        0.81180000       1.99700000      -0.06740000
H       -0.58390000       1.87750000      -0.93300000
H        1.10510000      -1.03360000       1.57500000
H        0.05420000       0.28010000       2.19950000
H       -2.23150000       0.09540000       0.32770000
H       -1.68730000      -1.24970000      -0.73010000
H        0.80410000      -1.62920000      -0.93810000
H        0.53110000       0.64450000      -2.57400000
