21
Properties=species:S:1:pos:R:3 gdb_5866=T pbc="F F F"
C       -0.07670000       1.55980000       0.08230000
C        0.00900000       0.02240000       0.04140000
C        0.69190000      -0.49380000       1.32190000
C       -1.41690000      -0.55620000      -0.03310000
C        0.76580000      -0.45690000      -1.22180000
C        2.23000000       0.01800000      -1.34320000
C        2.86440000      -0.48050000      -2.56170000
N        3.35100000      -0.88300000      -3.52960000
H        0.90740000       2.02580000       0.19750000
H       -0.53350000       1.95700000      -0.83090000
H       -0.68900000       1.88720000       0.92900000
H        0.10280000      -0.22590000       2.20520000
H        0.79110000      -1.58480000       1.30750000
H        1.69040000      -0.06600000       1.45910000
H       -1.93950000      -0.20750000      -0.93040000
H       -1.39920000      -1.65110000      -0.05970000
H       -2.00720000      -0.25200000       0.83760000
H        0.75690000      -1.55260000      -1.24850000
H        0.22130000      -0.12220000      -2.11220000
H        2.28750000       1.11160000      -1.35390000
H        2.82410000      -0.32130000      -0.48820000
