23
Properties=species:S:1:pos:R:3 gdb_96375=T pbc="F F F"
O       -0.02020000       1.41630000      -0.08080000
C       -0.01480000      -0.00420000      -0.00160000
C        0.73450000      -0.50220000       1.24300000
C        0.67200000      -2.03170000       1.36580000
C       -0.78080000      -2.52780000       1.36220000
C       -1.53240000      -2.01760000       0.12320000
C       -1.45320000      -0.50290000       0.00610000
C       -2.50500000       0.33080000       0.69820000
C       -2.48860000       0.22110000      -0.81040000
H        0.89150000       1.71750000      -0.02420000
H        0.48120000      -0.42260000      -0.89690000
H        1.77950000      -0.16550000       1.20230000
H        0.27950000      -0.03300000       2.12430000
H        1.21230000      -2.48670000       0.52390000
H        1.18790000      -2.35720000       2.27580000
H       -0.80900000      -3.62260000       1.39900000
H       -1.28920000      -2.16710000       2.26600000
H       -1.09780000      -2.47690000      -0.77710000
H       -2.58200000      -2.33070000       0.15400000
H       -3.28650000      -0.18690000       1.24540000
H       -2.19750000       1.27740000       1.12590000
H       -2.17220000       1.09590000      -1.36550000
H       -3.25870000      -0.37330000      -1.29210000
