19
Properties=species:S:1:pos:R:3 gdb_117107=T pbc="F F F"
C        0.19900000       1.45210000      -0.17780000
C       -0.00620000      -0.04390000      -0.03990000
O        0.67410000      -0.67790000      -1.14020000
C        0.61270000      -2.01950000      -1.19420000
N       -0.01420000      -2.70740000      -0.33800000
C        1.41440000      -2.48890000      -2.41470000
C        2.92010000      -2.16870000      -2.26200000
C        1.20080000      -3.91530000      -2.65880000
N        1.04210000      -5.04550000      -2.83940000
H        1.26210000       1.70740000      -0.14280000
H       -0.21270000       1.81900000      -1.12230000
H       -0.30600000       1.97080000       0.64230000
H        0.40070000      -0.43360000       0.89850000
H       -1.06430000      -0.32190000      -0.07400000
H        0.04250000      -3.70280000      -0.54420000
H        1.03050000      -1.93810000      -3.28190000
H        3.34070000      -2.70310000      -1.40670000
H        3.46590000      -2.46520000      -3.16030000
H        3.04230000      -1.09630000      -2.10510000
