14
Properties=species:S:1:pos:R:3 gdb_31480=T pbc="F F F"
O        0.23220000       0.97690000      -0.81780000
C       -0.08690000       0.20790000       0.31200000
C       -1.41240000      -0.46380000       0.14550000
N       -2.17400000      -0.38090000      -0.89340000
C       -3.28760000      -1.17460000      -0.58120000
C       -3.10160000      -1.69040000       0.66390000
O       -1.90300000      -1.24140000       1.13900000
C       -4.37910000      -1.36090000      -1.45880000
C       -5.31110000      -1.52320000      -2.20190000
H       -0.48810000       0.86190000      -1.45250000
H        0.68250000      -0.55960000       0.49190000
H       -0.11530000       0.83900000       1.21370000
H       -3.67330000      -2.33780000       1.30500000
H       -6.13170000      -1.66350000      -2.86120000
