19
Properties=species:S:1:pos:R:3 gdb_3443=T pbc="F F F"
C       -0.03100000       1.56790000       0.00500000
C        0.04650000       0.03990000       0.01990000
C        0.79500000      -0.56210000      -1.19570000
C        1.31290000      -1.93990000      -0.72460000
C        1.53510000      -1.77690000       0.77400000
C        2.27250000      -0.54430000       1.23830000
C        0.76140000      -0.55990000       1.22840000
H        0.97110000       2.01010000       0.03290000
H       -0.53330000       1.93150000      -0.89820000
H       -0.58590000       1.94800000       0.86940000
H       -0.97870000      -0.35730000       0.02380000
H        0.15710000      -0.63250000      -2.08120000
H        1.63490000       0.08650000      -1.46940000
H        0.55140000      -2.71150000      -0.89220000
H        2.21190000      -2.25430000      -1.26670000
H        1.59110000      -2.66860000       1.38910000
H        2.75830000      -0.59470000       2.20680000
H        2.80940000       0.05980000       0.51370000
H        0.24740000      -0.54650000       2.18410000
