18
Properties=species:S:1:pos:R:3 gdb_26507=T pbc="F F F"
O        0.27440000       1.30180000       0.40750000
C        0.05040000      -0.05030000       0.07500000
C       -0.74410000      -0.86960000       1.06590000
C       -1.39900000      -0.34230000      -0.19530000
C        1.13080000      -0.66050000      -0.73990000
C        1.70300000      -1.90680000      -0.59560000
N        2.66580000      -2.04670000      -1.56250000
C        2.73400000      -0.90380000      -2.31920000
C        1.79570000      -0.02600000      -1.83540000
H        1.12110000       1.34270000       0.86650000
H       -0.56130000      -1.93540000       1.14740000
H       -0.99610000      -0.37600000       1.99740000
H       -2.08510000       0.49090000      -0.09180000
H       -1.63560000      -1.04440000      -0.98610000
H        1.50770000      -2.69630000       0.11170000
H        3.24390000      -2.85870000      -1.68660000
H        3.43930000      -0.81540000      -3.13000000
H        1.59340000       0.96630000      -2.20670000
