19
Properties=species:S:1:pos:R:3 gdb_37939=T pbc="F F F"
C        0.02930000       1.54000000      -0.15330000
C        1.55220000       1.53300000       0.01150000
C        1.90680000       0.95930000       1.34420000
O        1.08390000       1.20980000       2.44320000
C        0.62500000       0.05250000       3.12740000
C       -0.54390000      -0.63070000       2.45990000
C       -0.82250000      -0.63710000       1.15520000
C        0.00990000      -0.02580000       0.06400000
C        1.53530000       0.00630000       0.25190000
H       -0.51650000       2.12750000       0.58750000
H       -0.29680000       1.81850000      -1.15710000
H        2.25080000       2.13260000      -0.55940000
H        2.97130000       0.97190000       1.58280000
H        1.45420000      -0.65710000       3.28590000
H        0.31720000       0.39970000       4.12030000
H       -1.21960000      -1.14320000       3.14250000
H       -1.73350000      -1.13960000       0.83530000
H       -0.24050000      -0.50480000      -0.88600000
H        2.21720000      -0.76310000      -0.09290000
