19
Properties=species:S:1:pos:R:3 gdb_126437=T pbc="F F F"
C        0.21320000       1.48930000       0.17350000
C       -0.06840000       0.00560000      -0.11900000
C        0.70100000      -0.51860000      -1.29170000
N        0.10930000      -0.83880000      -2.44140000
N        1.10080000      -1.24970000      -3.24860000
C        2.32960000      -1.20960000      -2.65970000
C        2.10070000      -0.73570000      -1.38280000
O        2.96150000      -0.49780000      -0.36070000
C        4.31810000      -0.78540000      -0.63360000
H        1.27590000       1.64870000       0.37740000
H       -0.06590000       2.11400000      -0.68060000
H       -0.35560000       1.82900000       1.04490000
H        0.17960000      -0.58690000       0.77030000
H       -1.13350000      -0.14500000      -0.31960000
H        0.87890000      -1.55080000      -4.18080000
H        3.22450000      -1.51060000      -3.17710000
H        4.88030000      -0.55220000       0.27210000
H        4.45740000      -1.84620000      -0.88490000
H        4.69660000      -0.17270000      -1.46390000
