18
Properties=species:S:1:pos:R:3 gdb_59193=T pbc="F F F"
C        0.03100000       1.38260000      -0.12390000
N        0.02250000      -0.05540000       0.10580000
C        0.68470000      -0.40660000       1.35430000
C       -1.30230000      -0.60320000       0.02860000
C       -1.92570000      -0.75340000      -1.39180000
O       -1.01080000      -1.89020000      -1.65770000
C       -1.42230000      -2.13120000      -0.25320000
C       -2.84880000      -1.85450000      -0.80210000
O       -3.93680000      -2.31760000      -0.88150000
H        1.06330000       1.74480000      -0.11870000
H       -0.40020000       1.61090000      -1.10240000
H       -0.53240000       1.94950000       0.64200000
H        0.17770000       0.00630000       2.24760000
H        0.73400000      -1.49350000       1.46250000
H        1.70930000      -0.02330000       1.34190000
H       -1.99780000      -0.21930000       0.80060000
H       -2.06920000      -0.02060000      -2.18230000
H       -0.98740000      -2.98230000       0.26520000
