18
Properties=species:S:1:pos:R:3 gdb_89942=T pbc="F F F"
C       -0.11080000       1.54180000       0.16170000
N        0.03450000       0.10310000       0.12380000
C       -1.16860000      -0.71350000       0.41290000
C       -0.34490000      -1.59180000       1.38690000
O        0.45270000      -2.59920000       0.71880000
C        1.62260000      -1.73840000       0.68690000
C        0.80610000      -0.54770000       1.20180000
C       -0.93890000      -2.03170000       2.62130000
C       -1.44520000      -2.38320000       3.65400000
H        0.86700000       2.01700000       0.03130000
H       -0.75070000       1.86610000      -0.66550000
H       -0.55540000       1.92010000       1.10200000
H       -1.95520000      -0.15780000       0.94410000
H       -1.59660000      -1.23170000      -0.45060000
H        2.39440000      -2.10160000       1.37740000
H        2.03020000      -1.62840000      -0.32220000
H        1.20170000       0.09740000       1.98880000
H       -1.88960000      -2.70210000       4.56440000
