17
Properties=species:S:1:pos:R:3 gdb_97753=T pbc="F F F"
O        0.21960000       1.02370000      -0.72120000
C        0.00430000       0.03100000       0.27500000
C       -1.33040000      -0.56170000       0.23550000
C       -2.44980000      -1.01000000       0.20030000
C       -3.76990000      -1.56240000       0.14500000
C       -4.43810000      -2.01630000      -1.15750000
C       -3.40410000      -2.71940000      -2.03050000
O       -3.04720000      -3.61830000      -0.94000000
C       -4.04570000      -3.03150000      -0.12100000
H       -0.51440000       1.64450000      -0.66800000
H        0.76320000      -0.73850000       0.09520000
H        0.19320000       0.43120000       1.28440000
H       -4.49290000      -1.12910000       0.83350000
H       -5.40220000      -1.64020000      -1.47090000
H       -3.84540000      -3.28510000      -2.85720000
H       -2.55000000      -2.13030000      -2.37880000
H       -4.60340000      -3.67260000       0.55240000
