21
Properties=species:S:1:pos:R:3 gdb_100526=T pbc="F F F"
C        0.69440000       1.59550000      -0.48120000
C        0.06780000       0.31820000       0.09080000
C        0.09450000      -0.83600000      -0.93630000
C        0.80600000      -0.15010000       1.33470000
O        2.01570000      -0.09290000       1.43640000
C        0.00630000      -0.73400000       2.49360000
O        0.86800000      -1.38990000       3.39510000
C       -0.75150000       0.37300000       3.26480000
O       -1.34070000      -0.17150000       4.42030000
H        1.75310000       1.43350000      -0.69790000
H        0.18780000       1.88700000      -1.40580000
H        0.62030000       2.42830000       0.22450000
H       -0.97870000       0.50530000       0.36030000
H        1.12520000      -1.06280000      -1.22470000
H       -0.35740000      -1.74940000      -0.53710000
H       -0.46070000      -0.54990000      -1.83420000
H       -0.73230000      -1.45400000       2.11290000
H        1.76120000      -1.10350000       3.13890000
H       -0.03940000       1.17850000       3.51150000
H       -1.55580000       0.80090000       2.65780000
H       -0.64440000      -0.69710000       4.83660000
