16
Properties=species:S:1:pos:R:3 gdb_35743=T pbc="F F F"
N        0.83730000      -0.71460000       0.87300000
C        0.34860000       0.24460000       0.45340000
C       -0.27550000       1.46900000      -0.09690000
C       -1.01770000       2.28470000       0.98140000
C        0.09660000       3.17580000       1.51880000
C       -0.09870000       4.23970000       2.50510000
O        0.51390000       2.99700000       2.86920000
C        1.19160000       3.17080000       0.44880000
O        0.69910000       2.35820000      -0.61930000
H       -0.92220000       1.17250000      -0.92680000
H       -1.79380000       2.88090000       0.49340000
H       -1.46770000       1.68060000       1.76960000
H        0.56260000       5.10550000       2.50580000
H       -1.08910000       4.41530000       2.92420000
H        1.40580000       4.15830000       0.03220000
H        2.11140000       2.75200000       0.87710000
