21
Properties=species:S:1:pos:R:3 gdb_95473=T pbc="F F F"
C       -0.10490000       1.61090000       0.00400000
C       -0.00380000       0.08260000       0.00460000
C        0.75010000      -0.49530000      -1.22480000
C        2.23790000      -0.07150000      -1.33210000
C        2.92560000       0.07660000       0.00680000
C        2.24000000      -0.16540000       1.11200000
C        2.18480000       0.22360000       2.56770000
O        0.72890000       0.20530000       2.49210000
C        0.77320000      -0.47180000       1.20010000
H        0.88090000       2.08480000      -0.00690000
H       -0.65670000       1.95730000      -0.87600000
H       -0.62730000       1.95990000       0.89820000
H       -1.02020000      -0.32950000      -0.00160000
H        0.69660000      -1.58980000      -1.17040000
H        0.22810000      -0.20980000      -2.14420000
H        2.77100000      -0.78270000      -1.97650000
H        2.31530000       0.89520000      -1.84980000
H        3.93480000       0.48150000       0.02430000
H        2.55470000      -0.52440000       3.28330000
H        2.57850000       1.20950000       2.84090000
H        0.53420000      -1.53710000       1.34040000
