23
Properties=species:S:1:pos:R:3 gdb_88823=T pbc="F F F"
C       -0.23200000       1.49580000      -0.00170000
C       -0.01140000      -0.01360000       0.05340000
C        1.08900000      -0.52510000      -0.92460000
C        2.09030000      -0.57120000       0.25940000
C        0.88050000      -0.52860000       1.23820000
C        0.99410000       0.26460000       2.51100000
C       -0.01980000       0.07520000       3.62840000
C        1.38200000      -0.41340000       3.80940000
O        1.54400000      -1.80370000       3.85400000
H        0.71320000       2.04900000       0.03970000
H       -0.73300000       1.77600000      -0.93490000
H       -0.85500000       1.83980000       0.83040000
H       -0.97850000      -0.51920000      -0.03190000
H        0.86570000      -1.52290000      -1.31230000
H        1.33810000       0.12550000      -1.76760000
H        2.76250000      -1.43150000       0.32410000
H        2.69590000       0.33880000       0.32100000
H        0.58220000      -1.55090000       1.48860000
H        1.37780000       1.27480000       2.39040000
H       -0.35420000       0.93690000       4.19520000
H       -0.77210000      -0.69260000       3.48120000
H        2.02770000       0.13970000       4.49160000
H        2.39590000      -2.01460000       3.45680000
