18
Properties=species:S:1:pos:R:3 gdb_54105=T pbc="F F F"
N        0.28240000       0.71300000       1.14700000
C        0.06870000       0.03170000      -0.01400000
O        0.83230000       0.08100000      -0.96130000
C       -1.22540000      -0.80040000       0.00770000
O       -2.22430000      -0.09320000       0.73640000
C       -1.64880000      -1.57160000      -1.28120000
C       -0.48290000      -2.56560000      -0.99180000
C       -1.16400000      -2.31410000       0.38550000
C       -2.52720000      -2.47280000      -0.35660000
H        1.07100000       1.33640000       1.19610000
H       -0.44830000       0.76610000       1.83590000
H       -2.46160000       0.69290000       0.23200000
H       -1.91680000      -1.12920000      -2.24140000
H       -0.62610000      -3.57140000      -1.39240000
H        0.53000000      -2.20270000      -1.14200000
H       -0.88030000      -2.71900000       1.35790000
H       -3.40020000      -2.01770000       0.10600000
H       -2.73670000      -3.47350000      -0.74130000
