27
Properties=species:S:1:pos:R:3 gdb_101436=T pbc="F F F"
C        0.20790000       1.38900000       1.07660000
C        0.00330000      -0.11950000       0.90110000
C       -1.36640000      -0.52320000       0.32010000
C       -1.56360000       0.00770000      -1.10870000
C       -1.53420000      -2.04340000       0.35550000
C       -1.43960000      -2.81250000       1.70340000
C       -2.52980000      -3.78370000       1.18030000
C       -2.93160000      -2.72010000       0.11560000
C       -4.15680000      -1.90430000       0.52590000
H        1.16970000       1.59990000       1.55490000
H        0.19590000       1.92070000       0.12020000
H       -0.57710000       1.82290000       1.70660000
H        0.79610000      -0.52470000       0.25630000
H        0.12850000      -0.60670000       1.87560000
H       -2.14010000      -0.07730000       0.96240000
H       -0.77100000      -0.36220000      -1.77100000
H       -2.52040000      -0.31870000      -1.52780000
H       -1.54490000       1.10060000      -1.14650000
H       -0.81750000      -2.48560000      -0.34980000
H       -0.47150000      -3.23650000       1.98140000
H       -1.80090000      -2.20830000       2.54220000
H       -2.09530000      -4.67870000       0.72630000
H       -3.30820000      -4.09490000       1.88300000
H       -3.08220000      -3.10880000      -0.89650000
H       -4.06590000      -1.51610000       1.54630000
H       -4.32780000      -1.05120000      -0.13850000
H       -5.05430000      -2.53210000       0.49550000
