19
Properties=species:S:1:pos:R:3 gdb_94911=T pbc="F F F"
C       -0.14240000       1.53490000      -0.05520000
C       -0.03890000       0.01140000       0.04590000
C        0.62040000      -0.65300000      -1.18840000
O        1.32100000      -1.81610000      -0.72600000
C        1.55530000      -1.68780000       0.64150000
C        2.32470000      -0.46970000       1.15880000
C        3.09800000       0.39140000       0.31610000
C        3.79660000       1.10400000      -0.35780000
C        0.78770000      -0.53720000       1.20270000
H        0.84840000       1.98840000      -0.14180000
H       -0.73150000       1.82920000      -0.93060000
H       -0.63370000       1.95350000       0.82880000
H       -1.04760000      -0.40310000       0.17120000
H       -0.10720000      -0.97970000      -1.93740000
H        1.32570000       0.03700000      -1.66370000
H        1.69140000      -2.64580000       1.13030000
H        2.77320000      -0.63440000       2.13620000
H        4.40680000       1.72660000      -0.96370000
H        0.33360000      -0.57150000       2.18640000
