21
Properties=species:S:1:pos:R:3 gdb_81221=T pbc="F F F"
C       -0.11900000       1.55520000      -0.00120000
C        0.03540000       0.03840000       0.00880000
C        1.16430000      -0.60920000      -0.84420000
C        2.14930000      -0.24520000       0.35010000
C        0.87420000      -0.58110000       1.16490000
C        0.14920000      -0.91890000       2.47980000
O       -0.39080000      -2.11920000       1.83090000
C        0.73540000      -2.06710000       0.89970000
C        0.77410000      -2.11050000      -0.65020000
H        0.82490000       2.09130000       0.12800000
H       -0.56040000       1.88750000      -0.94710000
H       -0.79220000       1.87730000       0.80130000
H       -0.94980000      -0.41970000      -0.12530000
H        1.38560000      -0.27190000      -1.85830000
H        3.02260000      -0.88250000       0.51420000
H        2.45770000       0.79920000       0.31750000
H        0.79860000      -1.18850000       3.32320000
H       -0.64380000      -0.24380000       2.81510000
H        1.54960000      -2.66860000       1.32800000
H       -0.18250000      -2.33470000      -1.12900000
H        1.51770000      -2.82420000      -1.01470000
