23
Properties=species:S:1:pos:R:3 gdb_102410=T pbc="F F F"
C       -0.34190000       1.54020000      -0.02770000
C        0.03160000       0.05430000      -0.01920000
C        0.76090000      -0.45420000       1.24790000
C        0.74010000      -1.99020000       1.19030000
O        1.68450000      -2.51100000       2.12930000
C        2.23330000       0.03040000       1.27140000
O        3.07150000      -0.67900000       0.37390000
C        0.09050000       0.03700000       2.54760000
O       -1.32230000      -0.12500000       2.57280000
H        0.52590000       2.18930000       0.13130000
H       -0.77390000       1.81350000      -0.99540000
H       -1.08400000       1.76430000       0.74290000
H       -0.88630000      -0.53010000      -0.15710000
H        0.67830000      -0.17090000      -0.87590000
H       -0.27380000      -2.35940000       1.41140000
H        0.99010000      -2.31820000       0.17270000
H        1.62490000      -3.47080000       2.11910000
H        2.27810000       1.08140000       0.97010000
H        2.62420000      -0.03040000       2.29660000
H        3.19560000      -1.54820000       0.77390000
H        0.56180000      -0.46610000       3.40350000
H        0.26270000       1.11190000       2.66560000
H       -1.51610000      -1.05890000       2.69290000
