17
Properties=species:S:1:pos:R:3 gdb_70831=T pbc="F F F"
O       -0.10260000       1.31200000      -0.04370000
C        0.02270000      -0.05930000      -0.07370000
C        0.57600000      -0.97140000      -1.19630000
C        0.07310000      -1.92550000      -0.08840000
O       -0.01940000      -3.30300000      -0.09020000
C        0.54030000      -0.99550000       1.08600000
C       -0.84300000      -1.02650000       1.77430000
C       -1.15530000      -1.01640000       0.25910000
O       -2.36500000      -0.98170000      -0.40130000
H        0.77550000       1.70190000      -0.11250000
H        0.01830000      -0.97720000      -2.13640000
H        1.65740000      -0.94040000      -1.37250000
H        0.86600000      -3.67410000      -0.16870000
H        1.53390000      -0.97170000       1.53040000
H       -1.09250000      -1.93930000       2.32240000
H       -1.13090000      -0.13390000       2.33490000
H       -2.78980000      -1.84040000      -0.29470000
