16
Properties=species:S:1:pos:R:3 gdb_80350=T pbc="F F F"
O        0.21430000       1.28820000       0.05690000
C       -0.00520000      -0.07930000      -0.00710000
C       -0.46760000      -0.87540000       1.17860000
N       -1.34580000       0.03740000       1.94950000
C       -2.37860000      -0.01650000       0.84400000
C       -2.95040000       1.25210000       0.42410000
C       -3.44940000       2.28650000       0.06830000
C       -1.36280000      -0.74950000      -0.05890000
O       -1.73750000      -1.69350000      -0.98890000
H       -0.18860000       1.57940000       0.88970000
H        0.72560000      -0.58690000      -0.63200000
H        0.05540000      -1.70630000       1.63590000
H       -1.70070000      -0.39100000       2.79730000
H       -3.17810000      -0.72320000       1.09430000
H       -3.87260000       3.20730000      -0.24940000
H       -1.69240000      -1.29260000      -1.86470000
