18
Properties=species:S:1:pos:R:3 gdb_78333=T pbc="F F F"
C       -0.10920000       1.39920000       0.00590000
C        0.05730000      -0.10270000       0.10100000
C        1.44100000      -0.66440000      -0.22120000
C        0.86070000      -0.67680000       1.22240000
C        0.78400000      -2.19290000       1.17640000
C        1.08930000      -3.16760000       2.24920000
N       -0.26090000      -3.09210000       1.66570000
C        1.39330000      -2.16990000      -0.22920000
O        1.82180000      -3.01940000      -0.95690000
H        0.78070000       1.92270000       0.37010000
H       -0.28200000       1.71050000      -1.02910000
H       -0.96350000       1.73210000       0.60450000
H       -0.80490000      -0.67130000      -0.24100000
H        2.21300000      -0.03620000      -0.64680000
H        1.21440000      -0.08690000       2.05890000
H        1.64300000      -4.06840000       2.00060000
H        1.25570000      -2.78100000       3.25180000
H       -0.88300000      -2.58040000       2.28890000
