23
Properties=species:S:1:pos:R:3 gdb_63950=T pbc="F F F"
C       -0.12830000       1.55310000      -0.04630000
C       -0.01270000       0.02770000       0.03640000
C       -1.42260000      -0.57510000       0.09370000
O        0.65000000      -0.45010000      -1.17140000
C        1.81010000      -1.18270000      -0.75420000
C        2.86810000      -0.18320000      -0.23890000
C        2.26840000       0.23410000       1.14390000
C        0.91620000      -0.51850000       1.16110000
C        1.34240000      -1.86660000       0.53620000
H        0.83420000       2.02450000      -0.25140000
H       -0.80820000       1.82600000      -0.85910000
H       -0.53080000       1.96850000       0.88400000
H       -1.94580000      -0.36750000      -0.84450000
H       -1.40430000      -1.65810000       0.23340000
H       -2.00060000      -0.13350000       0.91260000
H        2.12720000      -1.81660000      -1.58350000
H        3.85070000      -0.65410000      -0.13520000
H        2.96790000       0.65450000      -0.93310000
H        2.89540000      -0.11810000       1.96870000
H        2.16560000       1.31390000       1.26080000
H        0.43060000      -0.55840000       2.13780000
H        0.53240000      -2.57870000       0.37330000
H        2.14840000      -2.35620000       1.09000000
