15
Properties=species:S:1:pos:R:3 gdb_25934=T pbc="F F F"
N       -0.03440000       1.36000000      -0.02720000
C        0.06780000       0.00040000       0.10070000
O        1.12550000      -0.57610000       0.27520000
N       -1.15870000      -0.67720000       0.05590000
C       -2.46460000      -0.14480000       0.12230000
C       -3.29050000      -1.21600000       0.04930000
N       -2.58520000      -2.40300000      -0.07000000
C       -1.32210000      -2.05900000      -0.05960000
N       -0.26230000      -2.90010000      -0.22740000
H        0.85170000       1.82960000      -0.12760000
H       -0.80820000       1.75250000      -0.53810000
H       -2.64270000       0.89950000       0.30730000
H       -4.36950000      -1.21680000       0.08550000
H       -0.48740000      -3.87090000      -0.07860000
H        0.62080000      -2.56180000       0.12780000
