19
Properties=species:S:1:pos:R:3 gdb_54688=T pbc="F F F"
N        0.04470000       1.37170000       0.01590000
C        0.08530000      -0.01160000      -0.02510000
O        1.15800000      -0.59790000      -0.09710000
C       -1.22470000      -0.69020000      -0.00940000
C       -1.20600000      -2.04360000      -0.00930000
N       -2.31800000      -2.83140000      -0.01270000
C       -3.62320000      -2.23360000       0.22270000
C       -3.68860000      -0.87460000      -0.48180000
C       -2.54600000       0.05070000      -0.02400000
H        0.93630000       1.80920000       0.19040000
H       -0.76000000       1.83980000       0.39870000
H       -0.24850000      -2.55280000      -0.03530000
H       -2.20230000      -3.80800000       0.19700000
H       -4.39510000      -2.90650000      -0.16380000
H       -3.80920000      -2.10260000       1.30090000
H       -3.60960000      -1.03940000      -1.56190000
H       -4.66160000      -0.41150000      -0.29190000
H       -2.78370000       0.46460000       0.96840000
H       -2.49580000       0.90850000      -0.70570000
