21
Properties=species:S:1:pos:R:3 gdb_118867=T pbc="F F F"
C        0.05690000       1.60030000       0.13680000
C        0.01020000       0.07930000       0.01220000
C       -1.39840000      -0.47490000      -0.22610000
C       -2.08080000       0.02270000      -1.49610000
O       -3.30390000      -0.68880000      -1.62500000
C        1.09120000      -0.57070000      -0.94910000
C        1.68170000      -1.29050000       0.26690000
O        2.07170000      -0.28460000       1.21280000
C        0.69920000      -0.68270000       1.17380000
H        1.05380000       1.91730000       0.45290000
H       -0.16670000       2.09040000      -0.81660000
H       -0.67020000       1.95920000       0.87480000
H       -1.36090000      -1.57070000      -0.27360000
H       -2.03890000      -0.22440000       0.62950000
H       -2.26020000       1.10630000      -1.43190000
H       -1.42840000      -0.14840000      -2.36800000
H       -3.76930000      -0.34920000      -2.39480000
H        0.64630000      -1.24970000      -1.68070000
H        1.77490000       0.11560000      -1.45510000
H        2.20010000      -2.24090000       0.31850000
H        0.25720000      -1.04250000       2.09740000
