19
Properties=species:S:1:pos:R:3 gdb_68897=T pbc="F F F"
O        0.02920000       1.33380000      -0.02110000
C        0.04150000      -0.05840000       0.06630000
C       -0.51330000      -0.68010000       1.33090000
C       -1.30420000      -0.74820000       0.02460000
O       -2.39100000       0.13450000      -0.12990000
C       -1.39440000      -2.03180000      -0.71260000
C       -0.30860000      -2.71400000      -1.08170000
C        1.08890000      -2.22280000      -0.79210000
C        1.17190000      -0.68590000      -0.71900000
H       -0.89860000       1.58370000      -0.14040000
H       -0.10840000      -1.60700000       1.72250000
H       -0.86160000       0.02720000       2.07740000
H       -2.99820000       0.00720000       0.60600000
H       -2.39500000      -2.39530000      -0.93050000
H       -0.41570000      -3.66690000      -1.59190000
H        1.44750000      -2.66290000       0.14950000
H        1.78110000      -2.58330000      -1.56060000
H        1.11870000      -0.26940000      -1.73170000
H        2.13550000      -0.37760000      -0.29900000
