13
Properties=species:S:1:pos:R:3 gdb_6058=T pbc="F F F"
C        0.25280000       1.42000000      -0.02930000
C       -0.35650000       0.03740000       0.03460000
O       -0.85090000      -0.43410000       1.03460000
C       -0.31870000      -0.71920000      -1.20940000
C       -0.29270000      -1.34900000      -2.23990000
C       -0.32490000      -2.06180000      -3.51360000
N        0.45300000      -3.17960000      -3.54040000
O       -0.98300000      -1.66310000      -4.45310000
H        1.29690000       1.35810000      -0.35460000
H       -0.27720000       2.02690000      -0.77150000
H        0.19190000       1.89050000       0.95290000
H        0.88370000      -3.53860000      -2.70560000
H        0.42270000      -3.75620000      -4.36600000
