20
Properties=species:S:1:pos:R:3 gdb_40648=T pbc="F F F"
C        0.71130000       1.69890000       0.20830000
C        1.19260000       0.39420000      -0.32470000
N       -0.17920000       0.54430000       0.14970000
C       -0.49460000      -0.08310000       1.39990000
C       -1.87920000       0.03030000       1.98700000
C       -3.01320000       0.45230000       1.06950000
O       -2.98320000      -0.40620000      -0.06230000
C       -2.25770000      -1.59120000       0.23510000
C       -1.38850000      -1.29710000       1.44470000
H        1.08460000       2.00520000       1.18450000
H        0.46960000       2.51690000      -0.46430000
H        1.30910000       0.24130000      -1.39380000
H        1.88730000      -0.17040000       0.29570000
H        0.31070000      -0.08900000       2.14270000
H       -1.98580000       0.21570000       3.04980000
H       -3.96960000       0.36400000       1.61050000
H       -2.92260000       1.48040000       0.70110000
H       -2.93840000      -2.42540000       0.47150000
H       -1.68840000      -1.85840000      -0.66220000
H       -1.12100000      -2.12230000       2.09500000
