18
Properties=species:S:1:pos:R:3 gdb_75724=T pbc="F F F"
C        0.07400000       1.37280000       0.04060000
N       -0.12560000      -0.05580000       0.02850000
C       -0.04420000      -0.95280000      -1.02050000
O        0.01480000      -0.79100000      -2.21010000
C        0.01900000      -2.13680000      -0.01960000
O        1.38490000      -2.45570000       0.32660000
C        1.38670000      -1.51570000       1.42420000
C       -0.06020000      -1.05760000       1.10070000
C       -1.09260000      -0.94890000       2.19610000
H        1.03350000       1.64660000       0.49850000
H        0.07420000       1.71180000      -0.99810000
H       -0.72920000       1.88630000       0.58020000
H       -0.62420000      -3.00940000      -0.13980000
H        1.48840000      -2.03600000       2.38440000
H        2.17200000      -0.75720000       1.33130000
H       -0.90270000      -0.07530000       2.83080000
H       -2.09690000      -0.84720000       1.77430000
H       -1.07190000      -1.83460000       2.83740000
