16
Properties=species:S:1:pos:R:3 gdb_84302=T pbc="F F F"
C       -0.01780000       1.59680000      -0.12290000
C       -0.00360000       0.06490000       0.01260000
C        0.69880000      -0.59230000      -1.15250000
C        1.80170000      -1.27200000      -0.82310000
C        2.02880000      -1.22360000       0.63380000
O        2.94790000      -1.67010000       1.26680000
C        0.78240000      -0.49040000       1.24090000
C        1.14280000       0.48320000       2.25870000
N        1.42030000       1.26790000       3.06050000
H        0.99840000       1.99990000      -0.15540000
H       -0.53080000       1.88800000      -1.04450000
H       -0.53800000       2.05790000       0.71990000
H       -1.04390000      -0.27930000       0.05610000
H        0.32050000      -0.47080000      -2.16260000
H        2.47790000      -1.79010000      -1.49020000
H        0.19400000      -1.27750000       1.72810000
