21
Properties=species:S:1:pos:R:3 gdb_120780=T pbc="F F F"
O        0.12680000       1.36560000       0.28820000
C       -0.01740000      -0.04170000       0.40280000
C       -1.24140000      -0.44930000      -0.41250000
C       -1.45360000      -1.94220000      -0.39110000
O       -1.92910000      -2.52350000       0.83360000
C       -2.76560000      -2.60890000      -0.32770000
C       -4.08240000      -1.91260000      -0.29270000
C       -5.07670000      -2.17470000      -1.40080000
C       -5.33150000      -2.71920000      -0.02150000
H        0.86290000       1.63800000       0.84360000
H        0.87490000      -0.56720000       0.02370000
H       -0.16150000      -0.35100000       1.44870000
H       -2.11340000       0.07790000      -0.01710000
H       -1.10200000      -0.11810000      -1.44910000
H       -0.64090000      -2.51410000      -0.84800000
H       -2.81910000      -3.61630000      -0.75130000
H       -4.06310000      -0.90960000       0.11760000
H       -5.67590000      -1.34260000      -1.75230000
H       -4.79360000      -2.87590000      -2.17930000
H       -5.21670000      -3.78710000       0.13270000
H       -6.10880000      -2.26390000       0.58140000
