19
Properties=species:S:1:pos:R:3 gdb_112006=T pbc="F F F"
C       -0.01050000       1.50140000       0.01740000
C        0.00260000      -0.00580000       0.02030000
C        0.38730000      -0.76210000       1.24000000
N        1.32630000      -0.69010000       0.08130000
C        1.12720000      -1.81340000      -0.77290000
N        0.03910000      -1.91350000      -1.42360000
C       -0.80080000      -0.75550000      -1.05230000
C       -2.20330000      -1.24680000      -0.67700000
O       -2.79210000      -1.95380000      -1.74630000
H        0.72150000       1.90210000       0.72310000
H        0.22670000       1.88930000      -0.97870000
H       -0.99970000       1.87860000       0.30000000
H        0.72190000      -0.21880000       2.11880000
H       -0.07230000      -1.72520000       1.44160000
H        1.93210000      -2.53960000      -0.84810000
H       -0.90960000      -0.11760000      -1.94020000
H       -2.14440000      -1.86360000       0.23410000
H       -2.85380000      -0.39280000      -0.45710000
H       -2.11880000      -2.57470000      -2.05280000
