20
Properties=species:S:1:pos:R:3 gdb_87738=T pbc="F F F"
C        0.03660000       1.49710000      -0.13530000
C        0.07840000      -0.00860000      -0.00290000
C        1.39220000      -0.75400000      -0.09910000
C        0.66710000      -0.67990000       1.21060000
C        1.09620000       0.01100000       2.51240000
C        0.10150000      -0.92860000       3.27490000
C        0.01190000      -1.82460000       1.99330000
C        0.55990000      -1.54750000       4.50580000
N        0.94200000      -2.04780000       5.47610000
H        0.92950000       1.96110000       0.29620000
H       -0.01050000       1.79580000      -1.18810000
H       -0.83750000       1.92330000       0.37030000
H       -0.77960000      -0.52050000      -0.43480000
H        1.41700000      -1.70680000      -0.61890000
H        2.29790000      -0.16390000      -0.20900000
H        2.13550000      -0.19230000       2.78360000
H        0.90600000       1.08170000       2.61270000
H       -0.84740000      -0.42020000       3.46310000
H       -0.99310000      -2.13500000       1.69780000
H        0.64970000      -2.70920000       2.07380000
