19
Properties=species:S:1:pos:R:3 gdb_2091=T pbc="F F F"
C       -0.00850000       1.56580000       0.01670000
C        0.02510000       0.03570000       0.00000000
C        0.69930000      -0.51490000      -1.26620000
C        0.61860000      -2.04730000      -1.32930000
C        0.94960000      -2.68450000      -0.00480000
C        1.00940000      -2.00580000       1.14010000
C        0.72340000      -0.53000000       1.24920000
H        1.00600000       1.98040000      -0.02270000
H       -0.56250000       1.96140000      -0.84140000
H       -0.48590000       1.94510000       0.92700000
H       -1.01190000      -0.33110000       0.00830000
H        0.24420000      -0.07490000      -2.16120000
H        1.75390000      -0.20640000      -1.26710000
H       -0.38860000      -2.35960000      -1.64480000
H        1.29500000      -2.42950000      -2.10460000
H        1.14760000      -3.75410000      -0.00810000
H        1.27420000      -2.52330000       2.05960000
H        1.66450000       0.01530000       1.42540000
H        0.10900000      -0.33610000       2.13850000
