20
Properties=species:S:1:pos:R:3 gdb_90072=T pbc="F F F"
C        0.00570000       1.56620000      -0.12910000
N        0.07710000       0.14290000       0.10040000
C       -1.15800000      -0.61100000       0.49180000
C       -0.19780000      -1.57200000       1.20980000
C        0.57100000      -2.39530000       2.26890000
C        1.56980000      -1.85450000       1.14340000
O        0.60310000      -2.28730000       0.15980000
C        0.83890000      -0.44630000       1.24070000
C        1.13260000       0.47890000       2.40270000
H        1.00640000       1.95660000      -0.34070000
H       -0.61120000       1.75780000      -1.01420000
H       -0.42110000       2.15090000       0.70710000
H       -1.81710000      -0.05060000       1.17330000
H       -1.73500000      -1.02490000      -0.34000000
H        0.62170000      -2.00790000       3.28820000
H        0.43240000      -3.47580000       2.23030000
H        2.61430000      -2.15010000       0.99470000
H        1.82710000       1.26470000       2.08410000
H        0.23170000       0.97620000       2.77930000
H        1.60740000      -0.04620000       3.23480000
