18
Properties=species:S:1:pos:R:3 gdb_109283=T pbc="F F F"
C       -0.00210000       1.56600000       0.21850000
C       -0.02240000       0.05480000      -0.07390000
C       -1.40780000      -0.52220000      -0.14260000
C       -1.99230000      -1.03610000      -1.22620000
C       -3.40670000      -1.51210000      -1.10790000
O       -3.71540000      -1.98990000       0.22020000
C       -3.21400000      -1.35670000       1.30040000
O       -3.65260000      -1.54850000       2.40440000
N       -2.14330000      -0.50950000       1.05310000
H        1.02720000       1.93360000       0.25540000
H       -0.53680000       2.11850000      -0.55950000
H       -0.47260000       1.80450000       1.17770000
H        0.47740000      -0.14150000      -1.02650000
H        0.55190000      -0.47350000       0.69950000
H       -1.47730000      -1.10060000      -2.17500000
H       -4.12900000      -0.71870000      -1.35560000
H       -3.61250000      -2.35990000      -1.76620000
H       -1.71320000      -0.16430000       1.89670000
