18
Properties=species:S:1:pos:R:3 gdb_30066=T pbc="F F F"
C        0.27900000       1.35340000       0.20490000
N        0.11250000      -0.08080000       0.07780000
C       -0.01560000      -0.75760000      -1.11130000
C       -0.21010000      -2.09030000      -0.83760000
C       -0.20240000      -2.22900000       0.57570000
C       -0.00410000      -0.97800000       1.11850000
C        0.07710000      -0.56410000       2.56160000
C        1.39820000      -0.09030000       2.98410000
C        2.48170000       0.30700000       3.32100000
H        1.10290000       1.58640000       0.88410000
H        0.50520000       1.77060000      -0.77780000
H       -0.63250000       1.83300000       0.58130000
H        0.04330000      -0.22570000      -2.04800000
H       -0.33700000      -2.87510000      -1.56720000
H       -0.31910000      -3.14180000       1.14080000
H       -0.66660000       0.21290000       2.79100000
H       -0.20420000      -1.43070000       3.17000000
H        3.44220000       0.64400000       3.62320000
