20
Properties=species:S:1:pos:R:3 gdb_16570=T pbc="F F F"
C       -0.03320000       1.57770000      -0.06420000
C        1.46920000       1.97210000      -0.07680000
C        2.19060000       0.60550000       0.01720000
C        2.46800000       0.16170000       1.46180000
C        1.16500000       0.14710000       2.28420000
C        0.01020000      -0.48360000       1.48240000
C        0.01130000       0.03330000       0.03540000
O        1.26130000      -0.31060000      -0.57190000
H       -0.58520000       2.03040000       0.76390000
H       -0.52430000       1.88210000      -0.99130000
H        1.73280000       2.47460000      -1.01040000
H        1.74060000       2.64110000       0.74430000
H        3.10440000       0.56770000      -0.58190000
H        2.89880000      -0.84560000       1.42240000
H        3.21400000       0.81590000       1.92860000
H        1.31340000      -0.38790000       3.22800000
H        0.89760000       1.17470000       2.55970000
H        0.12920000      -1.57270000       1.44560000
H       -0.95350000      -0.27820000       1.96340000
H       -0.77540000      -0.45090000      -0.54950000
