13
Properties=species:S:1:pos:R:3 gdb_24482=T pbc="F F F"
O       -0.02260000       1.34070000       0.00960000
C        1.15350000       2.02580000       0.00200000
N        2.33210000       1.52330000      -0.01220000
C        2.40180000       0.15920000      -0.02030000
N        3.48930000      -0.57000000      -0.03480000
C        3.02470000      -1.88280000      -0.03750000
C        1.65540000      -2.01170000      -0.02500000
C        1.17810000      -0.66710000      -0.01300000
C       -0.00160000      -0.01050000       0.00200000
H        0.96980000       3.09300000       0.00960000
H        3.74630000      -2.69020000      -0.04890000
H        1.07470000      -2.92090000      -0.02430000
H       -1.00060000      -0.42880000       0.00940000
