21
Properties=species:S:1:pos:R:3 gdb_114085=T pbc="F F F"
C       -0.14430000       1.31310000       0.11800000
O        0.22520000      -0.03170000      -0.07550000
C        0.77820000      -0.63960000       1.07220000
C       -0.27020000      -1.05240000       2.16140000
C       -0.04460000      -2.57940000       2.12990000
O       -0.74660000      -3.37250000       3.03540000
C        1.50040000      -2.67180000       2.12120000
C        1.32190000      -2.03140000       0.71320000
C        0.02040000      -2.87210000       0.59500000
H        0.71600000       1.93060000       0.42170000
H       -0.52690000       1.68630000      -0.83530000
H       -0.93040000       1.42520000       0.88020000
H        1.56290000       0.01000000       1.48940000
H       -0.06940000      -0.62990000       3.15000000
H       -1.28470000      -0.77290000       1.85730000
H       -1.68350000      -3.16070000       2.96260000
H        2.05480000      -2.11840000       2.88550000
H        1.85070000      -3.70430000       2.06670000
H        2.10390000      -2.06720000      -0.04280000
H        0.21990000      -3.92670000       0.39570000
H       -0.77500000      -2.49150000      -0.04950000
