17
Properties=species:S:1:pos:R:3 gdb_65549=T pbc="F F F"
O       -0.07710000       1.38890000      -0.01900000
C       -0.02370000      -0.02640000       0.00400000
C        0.42610000      -0.63810000       1.40070000
N       -0.80590000      -1.31410000       1.87190000
C       -1.21750000      -2.01090000       0.58530000
C       -1.45910000      -0.58920000       0.02310000
C       -1.84670000      -0.27760000       1.49090000
C        0.77910000      -0.52090000      -1.12460000
N        1.44150000      -0.89610000      -1.99520000
H        0.82270000       1.73320000      -0.04120000
H        1.24570000      -1.35390000       1.31270000
H        0.71290000       0.16910000       2.07900000
H       -0.45210000      -2.64610000       0.13140000
H       -2.13770000      -2.57700000       0.73930000
H       -2.07820000      -0.36320000      -0.84480000
H       -2.84320000      -0.63370000       1.75750000
H       -1.67460000       0.72730000       1.87880000
