19
Properties=species:S:1:pos:R:3 gdb_110805=T pbc="F F F"
C       -0.19180000       1.54710000       0.22330000
C        0.16740000       0.08940000      -0.08810000
C        0.82950000      -0.59150000       1.09250000
C        0.10100000      -1.28110000       2.20380000
N       -1.10270000      -1.95340000       1.65460000
C       -0.21210000      -2.90310000       0.91120000
C       -0.53740000      -3.11290000      -0.50430000
N       -0.77720000      -3.30770000      -1.61800000
C        1.03080000      -2.08080000       1.29440000
H        0.69620000       2.13020000       0.49300000
H       -0.65650000       2.02940000      -0.64170000
H       -0.89640000       1.60680000       1.05940000
H       -0.73770000      -0.45420000      -0.36900000
H        0.84180000       0.04660000      -0.95170000
H        1.70260000      -0.05840000       1.46950000
H        0.17780000      -1.02810000       3.25430000
H       -1.62410000      -2.44770000       2.37000000
H       -0.16760000      -3.88570000       1.39280000
H        2.00290000      -2.52300000       1.46800000
