17
Properties=species:S:1:pos:R:3 gdb_43950=T pbc="F F F"
O       -0.15820000      -0.08220000      -0.45490000
C       -0.08440000       1.06490000      -0.15710000
C       -1.16540000       2.18960000       0.20180000
C       -0.00730000       2.84530000       0.98500000
C        1.01880000       4.03280000       1.08140000
C        2.02160000       2.80360000       1.15110000
O        1.71760000       2.21210000       2.39680000
C        0.27920000       2.15000000       2.33490000
C        1.02440000       2.14320000       0.10570000
H       -1.45060000       2.72600000      -0.70720000
H       -2.06430000       1.86870000       0.73320000
H        1.09820000       4.62410000       0.16910000
H        0.99870000       4.66820000       1.97040000
H        3.09820000       2.88680000       1.01260000
H       -0.16220000       2.67520000       3.18900000
H       -0.04420000       1.10070000       2.35790000
H        1.11510000       2.67950000      -0.84650000
