18
Properties=species:S:1:pos:R:3 gdb_94071=T pbc="F F F"
C        0.04080000       1.50200000       0.00970000
C        0.05090000      -0.00900000       0.00150000
O        0.70480000      -0.44500000      -1.17180000
C        0.75530000      -1.85230000      -1.26560000
C        1.47790000      -2.43010000      -0.02510000
C        0.77910000      -1.86570000       1.23520000
O        0.72700000      -0.45750000       1.15740000
C        1.47510000      -3.88780000      -0.03290000
N        1.45080000      -5.04340000      -0.03880000
H        1.06820000       1.87340000       0.00190000
H       -0.48080000       1.87510000      -0.87420000
H       -0.46370000       1.86560000       0.90740000
H       -0.97480000      -0.42650000       0.00910000
H       -0.25810000      -2.28000000      -1.32820000
H        1.29140000      -2.09690000      -2.18480000
H        2.51380000      -2.07380000      -0.03300000
H       -0.23300000      -2.29410000       1.31250000
H        1.33260000      -2.12010000       2.14120000
