16
Properties=species:S:1:pos:R:3 gdb_65885=T pbc="F F F"
C       -0.16350000       1.69930000      -0.03860000
C        0.00900000       0.18430000      -0.06330000
C        0.81950000      -0.41980000      -1.25280000
C        1.77770000      -0.92750000      -0.16070000
O        1.02700000      -0.25360000       0.87680000
C       -1.25920000      -0.49700000       0.19220000
C       -2.30540000      -1.06540000       0.40090000
C       -3.48630000      -1.70890000       0.63510000
N       -4.49220000      -2.25640000       0.83070000
H        0.80000000       2.17720000      -0.23280000
H       -0.88320000       2.01820000      -0.79860000
H       -0.52450000       2.02200000       0.94150000
H        0.30510000      -1.17960000      -1.83970000
H        1.23200000       0.34140000      -1.91640000
H        1.78220000      -2.01360000      -0.01580000
H        2.81000000      -0.56670000      -0.20930000
