15
Properties=species:S:1:pos:R:3 gdb_80211=T pbc="F F F"
O       -0.15710000       1.39400000       0.00120000
C       -0.07880000       0.00310000       0.06830000
C       -0.45400000      -0.76130000       1.28430000
C       -1.53680000      -0.00710000       2.06480000
C       -2.43130000      -0.08810000       0.80790000
O       -3.58870000       0.12740000       0.61310000
C       -1.36890000      -0.79190000      -0.02180000
C       -1.58950000      -1.79220000      -1.00490000
C       -1.79120000      -2.64350000      -1.83080000
H        0.63410000       1.76070000       0.41190000
H        0.71230000      -0.44110000      -0.53580000
H        0.12720000      -1.59320000       1.65990000
H       -1.98070000      -0.58820000       2.87730000
H       -1.27810000       0.99140000       2.42250000
H       -1.97810000      -3.39090000      -2.56140000
