19
Properties=species:S:1:pos:R:3 gdb_16611=T pbc="F F F"
C        0.07270000       1.50350000       0.13160000
C       -0.00400000       0.01440000       0.00550000
C       -0.05830000      -0.72690000      -1.11370000
C       -0.08480000      -0.27900000      -2.54140000
C       -0.02970000      -2.18330000      -0.76690000
N        1.24120000      -2.58590000      -0.09090000
C        0.03750000      -2.27400000       0.71230000
C        0.01550000      -0.85350000       1.25660000
H        1.01750000       1.81130000       0.59850000
H       -0.00080000       2.01060000      -0.83340000
H       -0.73010000       1.88610000       0.77570000
H       -0.14910000       0.80730000      -2.63900000
H        0.81610000      -0.61160000      -3.07320000
H       -0.94030000      -0.71290000      -3.07520000
H       -0.54040000      -2.91500000      -1.38590000
H        1.32560000      -3.60060000      -0.14380000
H       -0.44080000      -3.07650000       1.26350000
H        0.89110000      -0.64290000       1.88380000
H       -0.87200000      -0.67540000       1.88030000
