15
Properties=species:S:1:pos:R:3 gdb_27062=T pbc="F F F"
C        0.09960000       1.50740000       0.01870000
C       -0.04680000       0.03460000       0.04630000
C       -1.09870000      -0.82430000       0.00960000
O       -2.40080000      -0.45050000      -0.07070000
C       -3.37220000      -1.40770000      -0.09790000
N       -4.57210000      -1.03180000      -0.17260000
N       -0.66630000      -2.13330000       0.06470000
C        0.62260000      -2.02260000       0.13240000
O        1.07920000      -0.75830000       0.12680000
H        0.68770000       1.84100000      -0.84360000
H       -0.89260000       1.95910000      -0.04660000
H        0.59090000       1.88380000       0.92300000
H       -2.97660000      -2.42290000      -0.05000000
H       -5.18410000      -1.84560000      -0.18430000
H        1.35490000      -2.81190000       0.19130000
