15
Properties=species:S:1:pos:R:3 gdb_44432=T pbc="F F F"
O       -0.23270000       0.13900000      -0.54590000
C       -0.10320000       1.21740000      -0.09050000
O       -1.11740000       2.11950000       0.31090000
C       -0.12510000       2.85210000       1.11760000
C        0.74580000       4.16390000       1.00910000
C        1.96950000       3.11460000       1.18180000
C        0.98560000       2.27920000       0.30400000
O        0.98480000       3.04870000      -0.93090000
C        0.78740000       4.40560000      -0.48630000
H       -0.19190000       2.50340000       2.14770000
H        0.61060000       5.00490000       1.68700000
H        2.92440000       3.39770000       0.73770000
H        2.08510000       2.76370000       2.20620000
H       -0.15030000       4.80390000      -0.88820000
H        1.62070000       5.03650000      -0.81360000
