19
Properties=species:S:1:pos:R:3 gdb_38977=T pbc="F F F"
C        0.05000000       1.44370000       0.05750000
C        1.37970000       0.72110000      -0.06350000
C        1.72590000       0.09430000       1.29470000
C        0.41070000      -0.73690000       1.24080000
O        0.72320000      -2.10400000       1.01140000
C       -0.23730000      -2.72470000       0.17010000
C       -0.28520000      -2.03510000      -1.18860000
O       -0.68610000      -0.67090000      -1.05010000
C        0.03850000      -0.03520000      -0.06460000
H       -0.23550000       1.94330000       0.98230000
H       -0.27110000       1.95260000      -0.84640000
H        2.07350000       0.94330000      -0.86440000
H        2.58780000      -0.57410000       1.27550000
H        1.81950000       0.79320000       2.13230000
H       -0.29920000      -0.64860000       2.07810000
H        0.07050000      -3.76890000       0.05940000
H       -1.23790000      -2.70170000       0.63210000
H        0.70750000      -2.08840000      -1.65960000
H       -1.02000000      -2.50840000      -1.84590000
