23
Properties=species:S:1:pos:R:3 gdb_118231=T pbc="F F F"
C       -0.17600000       1.34850000      -0.04530000
O       -0.06140000      -0.05470000      -0.05160000
C        0.77320000      -0.54970000      -1.08370000
C        0.67300000      -2.07050000      -1.03950000
O       -0.68940000      -2.46120000      -1.16120000
C        1.45200000      -2.73550000      -2.16920000
C        1.49890000      -4.25770000      -2.03620000
C        2.10700000      -4.92960000      -3.26710000
O        2.27500000      -4.53240000      -0.86710000
H        0.79850000       1.83460000       0.11580000
H       -0.59680000       1.72730000      -0.98980000
H       -0.84490000       1.61980000       0.77520000
H        0.42880000      -0.17610000      -2.06270000
H        1.81410000      -0.21910000      -0.93550000
H        1.08200000      -2.41320000      -0.07740000
H       -1.17580000      -1.89880000      -0.54640000
H        0.98330000      -2.46970000      -3.12350000
H        2.48190000      -2.35790000      -2.18000000
H        0.46930000      -4.61660000      -1.89500000
H        3.12490000      -4.56490000      -3.44050000
H        2.15510000      -6.01630000      -3.13250000
H        1.50700000      -4.73200000      -4.16160000
H        2.20310000      -5.47290000      -0.67840000
