15
Properties=species:S:1:pos:R:3 gdb_26979=T pbc="F F F"
C       -0.02330000       1.40470000      -0.47410000
C       -0.10490000      -0.03650000      -0.12560000
C       -1.07740000      -0.98530000      -0.05440000
C       -2.55990000      -0.93550000      -0.30520000
C       -2.99840000       0.12070000      -1.21560000
N       -3.35440000       0.95700000      -1.92880000
N       -0.51960000      -2.19310000       0.36120000
C        0.73270000      -1.92550000       0.51570000
O        1.07090000      -0.64830000       0.24200000
H        0.73190000       1.57350000      -1.24880000
H       -0.98270000       1.76440000      -0.84630000
H        0.25900000       2.00510000       0.39810000
H       -2.86760000      -1.90200000      -0.71900000
H       -3.10820000      -0.82330000       0.63950000
H        1.52670000      -2.58620000       0.82640000
