21
Properties=species:S:1:pos:R:3 gdb_105268=T pbc="F F F"
C        0.95320000       1.24970000       0.21780000
O        0.09490000       0.18550000      -0.15300000
C        0.52450000      -0.55330000      -1.26130000
C        1.66590000      -1.52640000      -1.08940000
C        0.23940000      -2.03060000      -1.20630000
C       -0.46600000      -2.64810000      -0.02070000
C        0.33970000       0.17340000      -2.56500000
C        1.44800000       0.79910000      -3.30270000
O        0.88870000      -0.44670000      -3.72630000
H        1.97250000       0.89430000       0.42370000
H        1.00550000       2.02790000      -0.55550000
H        0.53680000       1.68700000       1.12830000
H        2.33650000      -1.68920000      -1.92550000
H        2.12540000      -1.56450000      -0.10710000
H       -0.00390000      -2.46990000      -2.16990000
H       -0.23240000      -2.10720000       0.89890000
H       -1.55310000      -2.62400000      -0.15180000
H       -0.16700000      -3.69410000       0.10640000
H       -0.66150000       0.58640000      -2.70140000
H        1.25260000       1.64400000      -3.96130000
H        2.45770000       0.73940000      -2.89990000
