20
Properties=species:S:1:pos:R:3 gdb_109437=T pbc="F F F"
C        0.21920000       1.57850000      -0.03850000
N       -0.20030000       0.19990000      -0.29980000
C        0.65410000      -0.50580000      -1.21790000
C        1.95090000      -1.19230000      -0.74060000
O        2.92430000      -0.91120000      -0.11350000
O        1.61390000      -2.41240000      -1.26380000
C        0.26810000      -1.94300000      -1.68480000
C       -0.80420000      -2.63850000      -0.86460000
C        0.09330000      -2.13140000      -3.18060000
H        1.24240000       1.66900000       0.35450000
H        0.15950000       2.15490000      -0.96830000
H       -0.47130000       2.03040000       0.67890000
H       -0.26530000      -0.30260000       0.57870000
H        0.86050000       0.14740000      -2.07250000
H       -0.57950000      -2.59690000       0.20480000
H       -1.77390000      -2.16130000      -1.03220000
H       -0.87680000      -3.69210000      -1.14920000
H        0.08390000      -3.19460000      -3.43920000
H       -0.85450000      -1.69150000      -3.50710000
H        0.90700000      -1.65190000      -3.73190000
