21
Properties=species:S:1:pos:R:3 gdb_91090=T pbc="F F F"
C        0.55430000       1.52820000      -0.28190000
C        0.11670000       0.09540000      -0.00700000
C        0.63320000      -0.99530000      -0.99760000
C        1.36390000      -1.72410000       0.16960000
C        2.86670000      -1.55010000       0.23970000
O        3.30530000      -0.21780000      -0.08220000
C        3.21660000      -0.58890000       1.29950000
C        1.96080000      -0.08580000       1.98840000
C        0.77930000      -0.68480000       1.18620000
H        1.63790000       1.58970000      -0.40750000
H        0.08480000       1.89800000      -1.20060000
H        0.25960000       2.20240000       0.53090000
H       -0.97420000       0.07090000       0.08300000
H       -0.15660000      -1.58740000      -1.46570000
H        1.29930000      -0.62070000      -1.77820000
H        1.09070000      -2.77150000       0.32250000
H        3.54120000      -2.33930000      -0.08470000
H        4.16650000      -0.61210000       1.82990000
H        1.95140000      -0.44700000       3.02350000
H        1.93670000       1.00780000       2.03110000
H        0.02630000      -1.09330000       1.86350000
