14
Properties=species:S:1:pos:R:3 gdb_27007=T pbc="F F F"
O       -0.40920000       1.37020000       0.24960000
C       -0.12860000       0.06320000       0.08550000
C        0.09660000      -0.59770000      -1.07950000
C        0.12420000      -0.20420000      -2.51710000
C        1.43250000      -0.36360000      -3.15480000
C        2.50410000      -0.50290000      -3.67860000
O        0.33550000      -1.91400000      -0.73370000
C        0.23830000      -1.94480000       0.60380000
N       -0.03770000      -0.80400000       1.15540000
H       -0.51030000       1.51800000       1.19750000
H       -0.62490000      -0.77610000      -3.08230000
H       -0.18880000       0.84510000      -2.56840000
H        3.45360000      -0.62320000      -4.13840000
H        0.39420000      -2.89610000       1.08730000
