14
Properties=species:S:1:pos:R:3 gdb_29205=T pbc="F F F"
C       -0.03200000       1.55140000       0.02150000
C       -0.00860000       0.05120000       0.00050000
C       -0.03640000      -0.69370000      -1.12600000
O       -0.01540000      -2.02460000      -1.14080000
C        0.04000000      -2.77000000       0.08410000
O        0.05530000      -3.95840000      -0.02310000
N        0.06890000      -2.04170000       1.24180000
C        0.04640000      -0.74240000       1.19710000
O        0.07630000      -0.07120000       2.35050000
H        0.85970000       1.95640000       0.51070000
H       -0.07520000       1.95030000      -0.99540000
H       -0.89870000       1.92800000       0.57430000
H       -0.07850000      -0.27040000      -2.12520000
H        0.11190000      -0.73820000       3.05450000
