24
Properties=species:S:1:pos:R:3 gdb_102569=T pbc="F F F"
C       -0.08050000       0.59310000       2.30110000
C        0.15370000      -0.79410000       1.69120000
C        0.22170000      -0.83470000       0.14870000
C        1.42790000      -0.04940000      -0.37420000
O        1.39440000      -0.03920000      -1.79410000
C        0.28070000      -2.28350000      -0.32100000
C       -0.92630000      -3.16190000      -0.28520000
N       -0.30620000      -2.80580000      -1.55340000
C       -1.05280000      -1.93470000      -2.44870000
H        0.75810000       1.27370000       2.12630000
H       -0.97970000       1.06090000       1.88450000
H       -0.21770000       0.51940000       3.38450000
H        1.07550000      -1.22710000       2.10380000
H       -0.65570000      -1.46140000       2.00660000
H       -0.68320000      -0.35760000      -0.24660000
H        1.40840000       0.97720000       0.01860000
H        2.35080000      -0.52680000      -0.00300000
H        2.18580000       0.40420000      -2.11200000
H        1.24030000      -2.75320000      -0.09480000
H       -0.85870000      -4.20440000       0.01780000
H       -1.87390000      -2.68160000      -0.03570000
H       -1.75870000      -1.25630000      -1.94180000
H       -0.35150000      -1.32680000      -3.02300000
H       -1.63250000      -2.56190000      -3.13420000
