19
Properties=species:S:1:pos:R:3 gdb_68554=T pbc="F F F"
O       -0.12100000       1.40910000       0.02610000
C       -0.02150000       0.02350000      -0.01180000
C        0.38110000      -0.80340000      -1.29150000
C       -0.34070000      -1.93630000      -0.47880000
C        0.57300000      -2.01590000       0.75620000
C        0.78310000      -0.73470000       1.06650000
C       -1.31850000      -0.81530000      -0.02800000
C       -2.50110000      -0.79920000       0.87140000
C       -2.63720000      -0.42220000      -0.60120000
H        0.76650000       1.78200000       0.04450000
H       -0.16740000      -0.49160000      -2.18440000
H        1.44700000      -0.93900000      -1.49160000
H       -0.68640000      -2.85490000      -0.94870000
H        0.92420000      -2.91650000       1.23970000
H        1.34080000      -0.28350000       1.87590000
H       -2.92300000      -1.74590000       1.19370000
H       -2.57730000      -0.00200000       1.60400000
H       -2.79490000       0.62470000      -0.84040000
H       -3.15210000      -1.11700000      -1.25780000
