16
Properties=species:S:1:pos:R:3 gdb_93078=T pbc="F F F"
C       -0.24040000       1.38690000       0.06370000
C        0.17440000      -0.06210000      -0.05340000
O        0.68720000      -0.25660000      -1.36210000
C        0.97330000      -1.53270000      -1.74130000
N        1.07370000      -2.59850000      -1.07890000
C        0.96040000      -2.71760000       0.36430000
C        1.52760000      -1.58870000       1.23240000
O        2.26970000      -1.78120000       2.14990000
O        1.16410000      -0.30600000       0.93090000
H        0.62830000       2.02890000      -0.09920000
H       -1.00290000       1.61740000      -0.68300000
H       -0.64120000       1.57680000       1.06140000
H       -0.67470000      -0.73960000       0.09620000
H        1.13600000      -1.55100000      -2.81760000
H       -0.08630000      -2.89170000       0.65050000
H        1.50860000      -3.60940000       0.67440000
