14
Properties=species:S:1:pos:R:3 gdb_25919=T pbc="F F F"
N       -0.08310000       1.37800000       0.08480000
C        0.07240000       0.02300000      -0.05910000
O        1.13230000      -0.53440000      -0.20830000
N       -1.14880000      -0.69830000      -0.05730000
C       -2.43550000      -0.23630000      -0.18460000
N       -3.30900000      -1.21140000      -0.15850000
C       -2.56510000      -2.35860000      -0.01000000
O       -3.15900000      -3.56530000       0.06160000
C       -1.22850000      -2.08800000       0.04720000
H        0.78480000       1.87800000       0.19830000
H       -0.86930000       1.73760000       0.60100000
H       -2.66660000       0.80600000      -0.33830000
H       -4.10770000      -3.40830000      -0.01870000
H       -0.34780000      -2.69350000       0.14830000
