14
Properties=species:S:1:pos:R:3 gdb_26566=T pbc="F F F"
N       -0.39540000       1.35910000      -0.10090000
C       -0.15240000      -0.05230000      -0.06450000
C       -1.25180000      -0.84560000       0.01880000
O       -2.50500000      -0.38810000       0.06650000
N       -1.11040000      -2.20570000       0.05900000
C        0.15540000      -2.73760000       0.01290000
N        1.24180000      -2.06360000      -0.06580000
C        1.17960000      -0.64190000      -0.11160000
O        2.19120000       0.03250000      -0.18600000
H        0.10470000       1.80680000       0.66490000
H        0.02500000       1.75170000      -0.94110000
H       -2.39490000       0.58330000       0.02710000
H       -1.93050000      -2.78950000       0.12010000
H        0.18350000      -3.82560000       0.04910000
