16
Properties=species:S:1:pos:R:3 gdb_61345=T pbc="F F F"
C        0.06690000       1.66090000       0.09970000
C        0.04340000       0.12370000      -0.00320000
N        0.65500000      -0.34790000      -1.24730000
C       -0.07530000      -0.47870000      -2.39010000
O       -1.25710000      -0.19160000      -2.47160000
C        0.69080000      -0.99660000      -3.51640000
C        1.29690000      -1.41940000      -4.46450000
C        0.70270000      -0.51090000       1.13660000
C        1.26890000      -1.00770000       2.07260000
H        1.09540000       2.03150000       0.10690000
H       -0.46410000       2.08530000      -0.75530000
H       -0.42610000       1.98410000       1.02040000
H       -1.00360000      -0.19700000      -0.04680000
H        1.62590000      -0.61640000      -1.24330000
H        1.82110000      -1.79330000      -5.31020000
H        1.75090000      -1.45730000       2.90550000
