14
Properties=species:S:1:pos:R:3 gdb_12617=T pbc="F F F"
C       -0.10590000       1.58410000       0.01380000
C        0.01660000       0.05260000      -0.01160000
C        0.82350000      -0.50480000      -1.16090000
C        1.85320000      -1.28510000      -0.79380000
C        1.92940000      -1.39140000       0.67420000
O        2.70130000      -2.01220000       1.36200000
C        0.76590000      -0.50040000       1.20620000
O        0.53200000      -0.27710000       2.36170000
H        0.88040000       2.05780000      -0.00090000
H       -0.67140000       1.94560000      -0.85000000
H       -0.62170000       1.89630000       0.92510000
H       -0.99580000      -0.37600000      -0.01730000
H        0.56820000      -0.27060000      -2.19020000
H        2.55090000      -1.78210000      -1.45570000
