19
Properties=species:S:1:pos:R:3 gdb_30657=T pbc="F F F"
C        0.06130000       1.55020000      -0.30030000
C       -0.03060000       0.03170000      -0.45810000
C       -1.23460000      -0.56990000       0.27000000
O       -2.48820000      -0.08270000      -0.22340000
C       -1.22580000      -2.07580000       0.23870000
N       -0.17980000      -2.87490000       0.23130000
C       -0.69300000      -4.15220000       0.25260000
C       -2.06260000      -4.12180000       0.27060000
N       -2.39000000      -2.78510000       0.26270000
H        0.89790000       1.95500000      -0.87680000
H       -0.85720000       2.03710000      -0.64110000
H        0.21290000       1.82820000       0.74860000
H       -0.09750000      -0.24240000      -1.52050000
H        0.86960000      -0.46300000      -0.08140000
H       -1.21750000      -0.23400000       1.31620000
H       -2.48340000      -0.20580000      -1.18020000
H       -0.04770000      -5.01750000       0.24880000
H       -2.81160000      -4.89590000       0.27790000
H       -3.30530000      -2.36640000       0.26400000
