19
Properties=species:S:1:pos:R:3 gdb_8115=T pbc="F F F"
C       -0.18000000       1.53070000       0.05660000
N        0.10750000       0.10110000       0.09660000
C        1.36420000      -0.49090000      -0.30440000
C        2.60600000       0.28350000       0.14530000
O        2.83740000       1.49220000      -0.54820000
C        2.05490000       0.30860000       1.61170000
C        0.86610000      -0.55450000       1.13340000
C        0.25610000      -1.68330000       1.91180000
H        0.65050000       2.18340000       0.34340000
H       -0.46970000       1.79230000      -0.96560000
H       -1.03570000       1.72800000       0.71110000
H        1.35200000      -1.24280000      -1.08770000
H        3.48760000      -0.37070000       0.09050000
H        3.64720000       1.88470000      -0.20650000
H        2.71010000      -0.20900000       2.31680000
H        1.80280000       1.29210000       2.01810000
H       -0.31290000      -1.30490000       2.76980000
H       -0.42930000      -2.25350000       1.27970000
H        1.02660000      -2.35910000       2.29900000
