19
Properties=species:S:1:pos:R:3 gdb_83388=T pbc="F F F"
O       -0.16790000       1.52100000       0.01690000
C       -0.01780000       0.12600000       0.03430000
C        0.11810000      -0.62430000       1.38490000
C       -1.15190000      -0.02040000       2.07860000
O       -2.14760000      -0.04050000       1.00090000
C       -1.36410000      -0.68450000       0.01960000
C       -1.68040000      -1.51400000      -1.22050000
C       -0.45940000      -2.41640000      -0.76990000
C       -0.58810000      -1.82460000       0.68850000
H        0.70780000       1.91680000      -0.02320000
H        0.70000000      -0.20920000      -0.71690000
H        1.02710000      -0.65600000       1.99040000
H       -1.51370000      -0.62100000       2.91970000
H       -0.98910000       1.01290000       2.39230000
H       -2.62430000      -2.05820000      -1.13040000
H       -1.63620000      -1.02060000      -2.19460000
H       -0.64310000      -3.49090000      -0.80910000
H        0.46710000      -2.20950000      -1.30690000
H       -1.14710000      -2.49480000       1.34340000
