12
Properties=species:S:1:pos:R:3 gdb_4447=T pbc="F F F"
N        0.20920000       1.40700000       0.09930000
C        0.00000000       0.04780000       0.01490000
C       -1.09700000      -0.71420000      -0.00080000
N       -2.43890000      -0.38570000      -0.01880000
O       -0.65890000      -2.07060000       0.04240000
C        0.68990000      -2.06450000       0.04700000
O        1.41390000      -3.00830000       0.05150000
O        1.11930000      -0.75070000       0.04250000
H        0.94920000       1.73600000      -0.50970000
H       -0.64830000       1.92320000      -0.05010000
H       -2.93360000      -0.64550000       0.82920000
H       -2.93730000      -0.76970000      -0.81550000
