19
Properties=species:S:1:pos:R:3 gdb_124440=T pbc="F F F"
C        0.17840000       1.51410000       0.17180000
C        0.03420000      -0.01200000       0.04250000
C        0.57750000      -0.70190000       1.31420000
C       -1.45210000      -0.38550000      -0.15710000
C        0.82170000      -0.49110000      -1.14660000
C        1.59680000       0.12780000      -2.08200000
N        2.06330000      -0.84440000      -2.93410000
N        1.64120000      -1.97580000      -2.59540000
O        0.81960000      -1.79650000      -1.42430000
H        1.22290000       1.80650000       0.31800000
H       -0.20260000       2.02880000      -0.71580000
H       -0.39260000       1.86800000       1.03520000
H        0.00350000      -0.37640000       2.18740000
H        0.49910000      -1.78900000       1.23560000
H        1.62840000      -0.44710000       1.48250000
H       -1.86350000       0.09730000      -1.04880000
H       -1.57440000      -1.46580000      -0.26780000
H       -2.03670000      -0.05860000       0.70840000
H        1.85090000       1.16500000      -2.20990000
