21
Properties=species:S:1:pos:R:3 gdb_22776=T pbc="F F F"
C       -0.03050000       1.50930000       0.07550000
C       -0.13270000      -0.00840000      -0.05680000
N        0.59810000      -0.49690000      -1.21190000
C        0.02520000      -0.22940000      -2.55770000
C        0.31610000      -1.67140000      -2.89960000
N        0.38090000      -2.39710000      -3.93080000
O        0.04050000      -1.66610000      -5.08530000
C        0.61600000      -1.97140000      -1.44560000
C        1.90550000      -2.68940000      -1.08050000
H        1.01540000       1.81800000       0.15970000
H       -0.46170000       2.01160000      -0.79700000
H       -0.57220000       1.85740000       0.96020000
H        0.29470000      -0.48590000       0.83330000
H       -1.20040000      -0.30700000      -0.09470000
H       -1.05520000      -0.00750000      -2.55400000
H        0.53890000       0.53820000      -3.14500000
H        0.14780000      -2.32380000      -5.78070000
H       -0.24560000      -2.47240000      -0.96920000
H        2.76080000      -2.20270000      -1.55570000
H        2.05830000      -2.67830000       0.00370000
H        1.86610000      -3.73220000      -1.40990000
