21
Properties=species:S:1:pos:R:3 gdb_81964=T pbc="F F F"
C        0.12440000       1.59030000      -0.03170000
C        0.12660000       0.06010000      -0.02570000
C        0.82540000      -0.59460000      -1.21760000
C        2.33460000      -0.65310000      -1.21380000
C        1.53190000      -1.84080000      -0.73880000
C        1.25990000      -1.98640000       0.75490000
O        2.31110000      -2.50260000       1.53750000
C        0.79390000      -0.57690000       1.22010000
O        1.97020000       0.11630000       1.65350000
H        1.14490000       1.98290000      -0.02460000
H       -0.37490000       1.97250000      -0.92750000
H       -0.40760000       1.99660000       0.83730000
H       -0.91710000      -0.28540000      -0.02810000
H        0.31350000      -0.57150000      -2.17430000
H        2.82000000      -0.75670000      -2.17850000
H        2.88690000      -0.06200000      -0.49430000
H        1.54960000      -2.74750000      -1.33310000
H        0.41900000      -2.68100000       0.87650000
H        2.85780000      -1.74240000       1.77460000
H        0.09270000      -0.65150000       2.05990000
H        1.70760000       0.85320000       2.21060000
