11
Properties=species:S:1:pos:R:3 gdb_503=T pbc="F F F"
O       -0.33110000       0.25650000       0.32820000
C        0.17290000       1.32810000       0.12460000
C        1.46970000       1.52640000      -0.64780000
N        1.46110000       2.73970000      -1.43820000
C        2.25740000       3.80860000      -1.14360000
O        3.02120000       3.86360000      -0.20580000
H       -0.27720000       2.27640000       0.49770000
H        2.28350000       1.64120000       0.07920000
H        1.66720000       0.63780000      -1.25510000
H        0.87590000       2.78960000      -2.25690000
H        2.12490000       4.63270000      -1.87030000
