20
Properties=species:S:1:pos:R:3 gdb_66311=T pbc="F F F"
C        0.32190000       1.55450000      -0.35280000
C       -0.03750000       0.09590000      -0.16090000
C       -1.48760000      -0.29800000      -0.38540000
C       -2.40930000       0.23020000       0.70900000
O       -3.73130000      -0.22500000       0.41500000
C       -4.62710000      -0.16220000       1.41750000
N       -5.83890000      -0.44220000       1.20200000
C        1.00970000      -0.92630000      -0.30710000
O        0.56190000      -0.52630000       0.99050000
H        1.38190000       1.71610000      -0.14380000
H        0.11550000       1.87150000      -1.38050000
H       -0.25440000       2.19960000       0.31820000
H       -1.83100000       0.07330000      -1.35750000
H       -1.57480000      -1.38820000      -0.40420000
H       -2.08010000      -0.14830000       1.68480000
H       -2.40260000       1.32740000       0.74520000
H       -4.18720000       0.13290000       2.38090000
H       -6.37000000      -0.36620000       2.06700000
H        0.74190000      -1.93950000      -0.60420000
H        2.02460000      -0.62370000      -0.56310000
