18
Properties=species:S:1:pos:R:3 gdb_24436=T pbc="F F F"
C       -0.00130000       1.53320000      -0.00680000
C        1.43550000       2.06080000       0.05750000
O        2.11700000       1.65490000       1.25580000
C        1.90170000       0.34450000       1.51920000
C        0.95960000      -0.50430000       0.99290000
C       -0.03490000      -0.00990000      -0.01680000
C        1.17050000      -1.76780000       1.63150000
C        2.21640000      -1.63020000       2.50880000
N        2.66530000      -0.32080000       2.43250000
H       -0.54800000       1.91090000       0.86480000
H       -0.48520000       1.94500000      -0.89880000
H        2.00980000       1.70380000      -0.80980000
H        1.46150000       3.15280000       0.06650000
H       -1.04920000      -0.35890000       0.21080000
H        0.19380000      -0.38200000      -1.02580000
H        0.60650000      -2.67330000       1.46370000
H        2.68300000      -2.33310000       3.17850000
H        3.42550000       0.08470000       2.94900000
