23
Properties=species:S:1:pos:R:3 gdb_115745=T pbc="F F F"
C       -0.01770000       1.72450000       0.15830000
C        0.43160000       0.28260000      -0.10500000
C        0.66540000      -0.50230000       1.18100000
C       -0.54260000      -0.86990000       2.08960000
C        0.13950000      -2.23270000       2.38590000
C        1.05650000      -2.01880000       1.14760000
C        0.59380000      -2.79020000      -0.10250000
C        0.83180000      -4.22460000       0.01420000
C        1.03970000      -5.40250000       0.13640000
H        0.73710000       2.27530000       0.73040000
H       -0.18830000       2.26590000      -0.77730000
H       -0.95030000       1.74990000       0.73230000
H       -0.32470000      -0.22230000      -0.71950000
H        1.35450000       0.29170000      -0.70070000
H        1.41540000       0.02650000       1.78260000
H       -0.75610000      -0.21590000       2.93840000
H       -1.46470000      -0.98740000       1.51040000
H        0.70530000      -2.21490000       3.32100000
H       -0.48770000      -3.12760000       2.38060000
H        2.11840000      -2.22730000       1.30470000
H       -0.47580000      -2.61740000      -0.27940000
H        1.11390000      -2.40640000      -0.98940000
H        1.21960000      -6.44440000       0.23170000
