23
Properties=species:S:1:pos:R:3 gdb_103773=T pbc="F F F"
C        0.13230000       1.34910000      -0.35940000
C       -0.04600000       0.03370000       0.41080000
C       -1.45450000      -0.52850000       0.31820000
C       -2.54360000       0.26770000       1.00570000
O       -1.80850000      -1.01890000      -0.99720000
C       -1.66020000      -1.96350000       0.05000000
C       -0.64920000      -3.11750000       0.04200000
C       -1.67680000      -3.95080000       0.86460000
C       -2.77600000      -2.89610000       0.53920000
H        1.17600000       1.67580000      -0.33100000
H       -0.15520000       1.21660000      -1.40660000
H       -0.47650000       2.15650000       0.05930000
H        0.65520000      -0.70720000       0.01510000
H        0.20960000       0.17900000       1.46870000
H       -2.59840000       1.28390000       0.60320000
H       -3.51910000      -0.20100000       0.86260000
H       -2.34660000       0.34410000       2.08110000
H       -0.50370000      -3.50740000      -0.96980000
H        0.33060000      -2.94020000       0.49220000
H       -1.86300000      -4.96980000       0.52140000
H       -1.43080000      -3.98100000       1.92850000
H       -3.40160000      -2.54900000       1.36530000
H       -3.42460000      -3.20370000      -0.28640000
