16
Properties=species:S:1:pos:R:3 gdb_125046=T pbc="F F F"
C        0.01200000       1.55670000       0.01050000
C       -0.03320000       0.05840000       0.02020000
C       -1.17120000      -0.67970000      -0.00040000
N       -2.48290000      -0.21960000       0.05590000
N       -1.06240000      -2.05630000      -0.02900000
N        0.10710000      -2.74110000      -0.00850000
N        1.18870000      -2.10250000       0.01840000
C        1.22540000      -0.66990000       0.05650000
N        2.35550000      -0.06580000       0.10900000
H        0.82860000       1.88690000      -0.63720000
H       -0.92030000       2.01030000      -0.34160000
H        0.23110000       1.95700000       1.00750000
H       -2.55490000       0.78670000       0.01600000
H       -3.10450000      -0.64960000      -0.61860000
H       -1.87080000      -2.64380000       0.09930000
H        3.10020000      -0.76550000       0.10500000
