16
Properties=species:S:1:pos:R:3 gdb_85100=T pbc="F F F"
C       -0.02510000       1.56880000       0.00390000
C        0.02360000       0.05090000       0.01770000
N        1.08820000      -0.56450000      -0.79460000
C        1.77570000      -1.14370000       0.23200000
O        2.80390000      -1.75720000       0.31510000
C        0.70560000      -0.62800000       1.26670000
O        1.21900000       0.32460000       2.17090000
C       -0.06850000      -1.67300000       1.91630000
C       -0.68410000      -2.55290000       2.45670000
H        0.94590000       1.99380000       0.26320000
H       -0.31970000       1.92810000      -0.98780000
H       -0.76360000       1.92850000       0.72620000
H       -0.96060000      -0.37710000      -0.19610000
H        1.30860000      -0.48660000      -1.77700000
H        1.87980000      -0.12350000       2.71240000
H       -1.22710000      -3.32910000       2.93760000
