19
Properties=species:S:1:pos:R:3 gdb_120724=T pbc="F F F"
N        0.02390000       0.42390000       1.18910000
H        1.01620000      -0.03070000       2.54420000
H        0.24500000       0.19020000       0.22790000
H       -0.74630000      -0.15820000       1.50070000
C       -0.34980000       1.84620000       1.32290000
C        0.00440000       2.39160000       2.71380000
C       -0.74830000       1.73710000       3.87340000
N       -1.26920000       0.37290000       3.69970000
C       -0.20660000       0.60470000       4.69490000
C        1.16500000      -0.01310000       4.52600000
O        1.82400000      -0.24230000       5.51200000
O        1.62470000      -0.26450000       3.30420000
H        0.21280000       2.41840000       0.57840000
H       -1.41580000       2.01050000       1.11360000
H        1.08480000       2.29290000       2.85840000
H       -0.21360000       3.46490000       2.72820000
H       -1.38220000       2.41970000       4.43540000
H       -2.16260000       0.25880000       4.16870000
H       -0.48750000       0.59460000       5.74340000
