16
Properties=species:S:1:pos:R:3 gdb_124309=T pbc="F F F"
C        0.58800000       0.61480000       0.50240000
C       -0.57060000       0.05200000      -0.29230000
O       -1.72580000       0.20560000       0.02280000
C       -0.19680000      -0.77140000      -1.53760000
C        0.04590000      -2.19940000      -1.14670000
N        1.25490000      -2.70940000      -1.21280000
O        1.13710000      -4.02140000      -0.76490000
C       -0.14310000      -4.25460000      -0.44080000
C       -0.89740000      -3.14850000      -0.65210000
H        1.34390000      -0.15810000       0.67690000
H        1.07580000       1.40730000      -0.07820000
H        0.23360000       1.02530000       1.44830000
H       -1.03430000      -0.71110000      -2.23730000
H        0.70690000      -0.37890000      -2.01080000
H       -0.36170000      -5.24710000      -0.07820000
H       -1.95160000      -3.00830000      -0.48320000
