19
Properties=species:S:1:pos:R:3 gdb_26125=T pbc="F F F"
C        0.42670000       1.14210000      -0.52040000
C        0.03700000      -0.09240000       0.28960000
O        0.23910000       0.12160000       1.69440000
C       -1.37020000      -0.56950000       0.04480000
C       -2.27000000      -0.53630000      -1.00180000
C       -2.15560000       0.07700000      -2.36570000
N       -3.42110000      -1.21580000      -0.65270000
C       -3.22620000      -1.65200000       0.57110000
N       -2.00200000      -1.29620000       1.03520000
H        1.44010000       1.44830000      -0.24850000
H        0.40010000       0.94020000      -1.59390000
H       -0.25870000       1.97290000      -0.31770000
H        0.74460000      -0.90010000       0.05660000
H       -0.27900000       0.89750000       1.94010000
H       -1.29170000      -0.30230000      -2.92340000
H       -3.05590000      -0.16980000      -2.93190000
H       -2.06780000       1.16820000      -2.33050000
H       -3.93120000      -2.21640000       1.16320000
H       -1.59880000      -1.46140000       1.94330000
