19
Properties=species:S:1:pos:R:3 gdb_125222=T pbc="F F F"
C        0.11320000       1.51700000       0.13960000
C        0.07480000       0.03410000      -0.03600000
C        0.39190000      -0.77240000      -1.10970000
C        0.15340000      -2.10120000      -0.67090000
N       -0.28100000      -2.11680000       0.58820000
N       -0.31940000      -0.81370000       0.94840000
C        0.32210000      -3.37100000      -1.40430000
C        0.02960000      -3.45580000      -2.88870000
C        1.44830000      -3.54810000      -2.40240000
H        0.80620000       1.81660000       0.93440000
H        0.44260000       1.99450000      -0.78530000
H       -0.87300000       1.92390000       0.39190000
H        0.74520000      -0.44000000      -2.07320000
H       -0.62380000      -0.57690000       1.87720000
H        0.06130000      -4.23830000      -0.80820000
H       -0.45140000      -4.35410000      -3.25970000
H       -0.28290000      -2.54380000      -3.38590000
H        2.10270000      -2.69910000      -2.56830000
H        1.94740000      -4.51020000      -2.43760000
