14
Properties=species:S:1:pos:R:3 gdb_19671=T pbc="F F F"
C        0.05390000      -1.23990000      -0.03620000
C        0.05020000      -0.03910000       0.02170000
C        0.02880000       1.40990000       0.07750000
C       -0.16580000       2.14970000       1.41100000
C        1.25300000       2.30300000       1.98330000
O        2.16070000       1.63850000       1.10630000
C        1.38510000       2.19470000       0.01780000
C        0.76150000       3.27970000       0.97230000
H        0.07020000      -2.30080000      -0.07850000
H       -0.65710000       1.82320000      -0.66890000
H       -1.05980000       2.20270000       2.01820000
H        1.49480000       2.38480000       3.03400000
H        1.94520000       2.32060000      -0.90560000
H        0.65390000       4.35420000       0.93820000
