14
Properties=species:S:1:pos:R:3 gdb_133004=T pbc="F F F"
C        0.05530000       1.42100000      -0.08820000
N        0.13250000      -0.02540000      -0.06470000
C        0.55050000      -0.62330000       0.97660000
N        0.96910000       0.00750000       2.17490000
C        1.36900000      -0.68940000       3.15500000
O        1.46050000      -2.03900000       3.22890000
C        1.07250000      -2.72580000       2.10560000
C        0.63460000      -2.08420000       1.01690000
F        0.26680000      -2.77180000      -0.05280000
H        0.66450000       1.79080000      -0.92170000
H       -0.97860000       1.71310000      -0.30820000
H        0.37780000       1.90920000       0.83730000
H        1.69690000      -0.24010000       4.08810000
H        1.16050000      -3.79760000       2.20510000
