18
Properties=species:S:1:pos:R:3 gdb_37883=T pbc="F F F"
C       -0.05350000       1.55160000       0.07030000
C        1.47600000       1.47740000      -0.00500000
C        2.08750000       0.78520000       1.25490000
O        1.03510000       0.39410000       2.13860000
C        0.34810000      -0.61200000       1.37250000
C        1.49250000      -1.58090000       1.02910000
C        2.31270000      -0.48560000       0.36260000
N        1.39850000       0.11390000      -0.68110000
C        0.01780000       0.01000000      -0.00740000
H       -0.50880000       1.99270000       0.95790000
H       -0.47490000       1.98850000      -0.83670000
H        2.06340000       2.26230000      -0.48770000
H        2.88210000       1.26620000       1.82700000
H       -0.49620000      -0.98230000       1.95340000
H        1.95120000      -2.01440000       1.91990000
H        1.21050000      -2.36650000       0.32240000
H        3.31220000      -0.71620000      -0.00340000
H       -0.73490000      -0.54410000      -0.57250000
