18
Properties=species:S:1:pos:R:3 gdb_55868=T pbc="F F F"
C       -0.08360000       1.46670000       0.29450000
C        0.07610000      -0.02350000       0.11200000
O       -1.08150000      -0.69930000      -0.30080000
C        1.41060000      -0.60140000      -0.34020000
C        0.91210000      -0.82770000       1.05910000
O        1.64110000      -0.16900000       2.07250000
C        1.07570000      -0.20410000       3.31440000
N        1.84750000       0.51690000       4.18260000
O        0.04570000      -0.76730000       3.58900000
H        0.82010000       1.91410000       0.71460000
H       -0.29060000       1.95570000      -0.66500000
H       -0.91970000       1.67170000       0.97010000
H       -1.25730000      -0.45050000      -1.21540000
H        1.39820000      -1.44980000      -1.01500000
H        2.24190000       0.08420000      -0.46430000
H        0.53500000      -1.80190000       1.34510000
H        2.79140000       0.74120000       3.91670000
H        1.65540000       0.37850000       5.15990000
