24
Properties=species:S:1:pos:R:3 gdb_101843=T pbc="F F F"
C       -0.06740000       1.52500000       0.08520000
C       -0.10500000       0.00670000      -0.10270000
C        0.77360000      -0.48150000      -1.26180000
O        2.13390000      -0.07620000      -1.09170000
C        0.66410000      -1.99500000      -1.47690000
C        1.49040000      -2.49420000      -2.66200000
N        1.42420000      -3.94810000      -2.76680000
C        0.34060000      -4.48950000      -3.58050000
C        1.74690000      -4.51610000      -4.06930000
H        0.96050000       1.87000000       0.22370000
H       -0.47290000       2.03970000      -0.79310000
H       -0.65670000       1.83280000       0.95410000
H        0.22570000      -0.49400000       0.81940000
H       -1.13550000      -0.32810000      -0.27560000
H        0.45910000       0.03290000      -2.18050000
H        2.46480000      -0.50560000      -0.29410000
H        0.99240000      -2.52010000      -0.56920000
H       -0.39000000      -2.26270000      -1.62330000
H        1.14560000      -1.99870000      -3.58990000
H        2.53710000      -2.20750000      -2.52060000
H       -0.13350000      -5.39220000      -3.20560000
H       -0.33710000      -3.78530000      -4.06230000
H        2.00390000      -3.83030000      -4.87560000
H        2.32080000      -5.43840000      -4.05660000
