18
Properties=species:S:1:pos:R:3 gdb_132508=T pbc="F F F"
C       -0.03980000       1.53000000      -0.00120000
C       -0.02040000       0.02040000      -0.01540000
C       -0.02370000      -0.69260000      -1.21410000
C        0.00930000      -2.08610000      -1.21770000
C        0.04440000      -2.75730000      -0.00910000
F        0.07430000      -4.10060000      -0.00650000
C        0.04670000      -2.09460000       1.21840000
C        0.08150000      -2.87780000       2.50400000
C        0.01320000      -0.70180000       1.18320000
H        0.91970000       1.94050000       0.33540000
H       -0.23930000       1.93450000      -0.99710000
H       -0.80820000       1.91520000       0.67760000
H       -0.05290000      -0.15890000      -2.15880000
H        0.00590000      -2.65410000      -2.14080000
H        0.97690000      -3.50570000       2.56430000
H        0.07450000      -2.20900000       3.36790000
H       -0.77900000      -3.55060000       2.58470000
H        0.01250000      -0.16130000       2.12650000
