21
Properties=species:S:1:pos:R:3 gdb_103677=T pbc="F F F"
C       -0.24990000       1.58850000       0.03590000
C       -0.01830000       0.07720000       0.01080000
C       -1.32140000      -0.68650000      -0.22120000
O       -1.90160000      -0.43610000      -1.49220000
C        1.16690000      -0.33160000      -0.91650000
C        2.09750000      -0.44840000       0.33200000
C        0.81900000      -0.42390000       1.22790000
C        2.94100000      -1.68790000       0.41640000
O        4.13050000      -1.71590000       0.60160000
H        0.68120000       2.13310000       0.22230000
H       -0.64270000       1.94310000      -0.92390000
H       -0.96050000       1.86680000       0.82350000
H       -1.12270000      -1.76410000      -0.19820000
H       -2.02940000      -0.46940000       0.59610000
H       -2.26630000       0.45380000      -1.48630000
H        0.99600000      -1.29910000      -1.39920000
H        1.47720000       0.38370000      -1.68080000
H        2.73610000       0.42480000       0.47490000
H        0.85960000       0.21890000       2.11010000
H        0.52420000      -1.43060000       1.54610000
H        2.35830000      -2.63360000       0.28720000
