18
Properties=species:S:1:pos:R:3 gdb_111646=T pbc="F F F"
O        0.14630000       1.13280000       0.62460000
C        0.05500000      -0.04520000      -0.16250000
C       -1.35610000      -0.59600000      -0.19270000
C       -1.66260000      -2.08770000      -0.20940000
C       -0.57640000      -3.15040000      -0.11960000
N        0.09510000      -3.28000000       1.16870000
C       -0.19430000      -2.49620000       2.11170000
O       -1.07760000      -1.45770000       2.14660000
C       -1.92110000      -1.27700000       1.02570000
H       -0.08540000       0.88170000       1.52540000
H        0.35920000       0.24490000      -1.17320000
H        0.76730000      -0.80810000       0.17930000
H       -2.06230000       0.03440000      -0.72600000
H       -2.53740000      -2.38320000      -0.77990000
H       -1.02630000      -4.12470000      -0.34270000
H        0.19760000      -3.00240000      -0.88350000
H        0.29910000      -2.57640000       3.07800000
H       -2.93040000      -1.06170000       1.35610000
