16
Properties=species:S:1:pos:R:3 gdb_33840=T pbc="F F F"
N        0.08210000      -1.14490000       0.15100000
C        0.08080000       0.00720000       0.04980000
C        0.05240000       1.42510000      -0.12360000
C       -0.72590000       2.23920000      -1.17960000
C        0.43410000       3.26660000      -1.13470000
C        1.07940000       3.93490000      -2.31220000
C        0.39720000       4.75900000      -1.24270000
C        1.14450000       2.42950000      -0.09120000
O        0.25480000       2.26570000       1.01820000
H       -0.80470000       1.72330000      -2.13900000
H       -1.71020000       2.57540000      -0.84740000
H        2.16360000       3.95250000      -2.35840000
H        0.59460000       3.84020000      -3.27820000
H       -0.55420000       5.22020000      -1.48560000
H        1.01430000       5.33980000      -0.56570000
H        2.20450000       2.29830000       0.09460000
