17
Properties=species:S:1:pos:R:3 gdb_79255=T pbc="F F F"
C        0.05070000       1.47310000      -0.01800000
C       -0.01940000      -0.02260000      -0.00490000
O        0.65740000      -0.63450000      -1.09640000
C        0.52340000      -1.98930000      -0.70010000
C        0.49100000      -1.96650000       0.80430000
O        0.59590000      -0.59770000       1.16330000
C       -0.80460000      -2.15100000       0.01990000
C       -1.40040000      -0.74660000       0.00320000
O       -2.19880000      -0.41000000       1.11000000
H        1.07820000       1.80640000       0.14170000
H       -0.30110000       1.84770000      -0.98190000
H       -0.58940000       1.87520000       0.77020000
H        1.01300000      -2.71020000      -1.33780000
H        0.95380000      -2.66470000       1.48550000
H       -1.39390000      -3.05650000       0.01930000
H       -1.97530000      -0.52900000      -0.89900000
H       -1.63270000      -0.49900000       1.88770000
