14
Properties=species:S:1:pos:R:3 gdb_469=T pbc="F F F"
C       -0.15080000       1.55560000       0.06670000
C        0.08210000       0.05520000       0.00040000
C        0.90470000      -0.42830000      -1.20340000
O        1.58700000      -1.56220000      -0.69260000
C        1.89910000      -1.22190000       0.63470000
O        0.86840000      -0.37990000       1.11740000
H        0.80060000       2.09570000       0.03840000
H       -0.76670000       1.88560000      -0.77690000
H       -0.67000000       1.82210000       0.99100000
H       -0.88150000      -0.47430000       0.02770000
H        0.30060000      -0.74240000      -2.05690000
H        1.61450000       0.34980000      -1.52930000
H        1.95000000      -2.14250000       1.22710000
H        2.86450000      -0.68710000       0.68980000
