19
Properties=species:S:1:pos:R:3 gdb_55039=T pbc="F F F"
N       -0.58350000       1.47050000      -0.32470000
C       -0.16680000       0.15440000      -0.25460000
O        0.85050000      -0.25120000      -0.77470000
N       -1.02340000      -0.64860000       0.51170000
C       -2.44970000      -0.80510000       0.25730000
C       -1.49860000      -1.95440000       0.08800000
C       -1.19370000      -2.50470000      -1.26580000
C       -0.15290000      -3.58130000      -1.41690000
C       -1.61010000      -3.92160000      -1.59160000
H        0.13810000       2.11530000      -0.60740000
H       -1.21180000       1.80480000       0.38900000
H       -3.10140000      -0.74420000       1.12570000
H       -2.85020000      -0.35840000      -0.65040000
H       -1.46930000      -2.69760000       0.88480000
H       -1.25520000      -1.78060000      -2.07180000
H        0.48480000      -3.54620000      -2.29210000
H        0.34690000      -3.92580000      -0.51800000
H       -2.09600000      -4.49950000      -0.81160000
H       -1.98270000      -4.12540000      -2.58920000
