19
Properties=species:S:1:pos:R:3 gdb_58663=T pbc="F F F"
C        0.10270000       1.48340000      -0.10950000
C       -0.03760000      -0.02630000       0.05050000
O        0.59380000      -0.49320000       1.25140000
C       -1.48580000      -0.52550000       0.00870000
C       -1.99160000      -1.19270000      -1.27270000
C       -1.63380000      -2.04400000      -0.09770000
O       -0.47500000      -2.80950000      -0.16490000
C       -2.41480000       0.16980000       0.85470000
C       -3.16860000       0.74650000       1.59630000
H        1.15770000       1.76470000      -0.05930000
H       -0.30310000       1.80910000      -1.07250000
H       -0.44120000       2.01290000       0.67910000
H        0.51020000      -0.53100000      -0.74850000
H        0.10440000      -0.12150000       1.99550000
H       -3.03770000      -1.06880000      -1.52570000
H       -1.30560000      -1.20080000      -2.11270000
H       -2.45250000      -2.48450000       0.46940000
H        0.08220000      -2.53450000       0.57760000
H       -3.84720000       1.25750000       2.23340000
