20
Properties=species:S:1:pos:R:3 gdb_90873=T pbc="F F F"
O       -0.20780000       1.54590000      -0.18130000
C        0.03490000       0.15340000       0.00230000
C       -1.34780000      -0.49530000       0.19850000
C       -1.50420000      -1.94040000      -0.24780000
C       -0.65110000      -2.55170000      -1.27990000
C        0.76800000      -1.98780000      -1.12710000
C        0.75630000      -2.66510000       0.27600000
N       -0.67090000      -3.11080000       0.13540000
C        0.81240000      -0.45720000      -1.17340000
H        0.64460000       1.99040000      -0.23270000
H        0.62830000       0.01290000       0.91690000
H       -1.66570000      -0.37970000       1.24080000
H       -2.05180000       0.09330000      -0.40290000
H       -2.54530000      -2.25560000      -0.26780000
H       -1.02730000      -3.11130000      -2.13060000
H        1.49720000      -2.43040000      -1.80770000
H        1.39040000      -3.55370000       0.31410000
H        0.96060000      -2.05760000       1.16230000
H        0.36670000      -0.10530000      -2.11250000
H        1.84770000      -0.09190000      -1.15120000
