19
Properties=species:S:1:pos:R:3 gdb_70443=T pbc="F F F"
C       -0.23350000       1.48030000       0.12180000
C        0.00190000       0.00360000       0.00850000
C       -0.76520000      -1.05720000       0.78370000
C        0.72480000      -0.98870000       0.88910000
O        1.34220000      -1.65400000      -0.22310000
C        0.77070000      -0.68230000      -1.13470000
C        0.05720000      -1.28130000      -2.31830000
C        0.29680000      -2.66800000      -2.73880000
O       -0.91930000      -2.29420000      -2.08410000
H        0.66330000       2.05180000      -0.14440000
H       -1.04750000       1.80830000      -0.53600000
H       -0.51240000       1.75530000       1.14400000
H       -1.30540000      -0.66230000       1.63990000
H       -1.22870000      -1.89520000       0.27710000
H        1.30740000      -0.88290000       1.79680000
H        1.56570000      -0.02240000      -1.51570000
H       -0.22980000      -0.55080000      -3.07770000
H        0.19710000      -2.93870000      -3.78850000
H        0.96680000      -3.28240000      -2.14280000
