20
Properties=species:S:1:pos:R:3 gdb_58095=T pbc="F F F"
C        0.13310000       1.61800000       0.04610000
C        0.02200000       0.09620000       0.09020000
O        0.66290000      -0.33200000       1.26890000
C       -1.44740000      -0.43340000       0.01610000
C       -2.27440000      -0.00990000       1.24090000
N       -2.15010000      -0.02140000      -1.21510000
H       -1.49690000       0.08860000      -1.98670000
H       -2.73340000      -1.78220000      -1.25670000
H       -2.62060000       0.86740000      -1.08730000
C       -1.41380000      -1.98590000       0.00940000
O       -0.65630000      -2.64230000       0.68890000
O       -2.31610000      -2.54590000      -0.79140000
H        1.19030000       1.89420000       0.05730000
H       -0.32030000       2.03730000      -0.85640000
H       -0.33650000       2.07000000       0.92390000
H        0.53730000      -0.31150000      -0.80160000
H        0.51400000      -1.29140000       1.32180000
H       -2.41350000       1.07570000       1.25330000
H       -3.26100000      -0.48190000       1.22810000
H       -1.75070000      -0.29700000       2.15310000
