22
Properties=species:S:1:pos:R:3 gdb_109875=T pbc="F F F"
C        0.07490000       1.41660000       0.03760000
O       -0.21940000       0.05450000      -0.17910000
C        0.58930000      -0.55360000      -1.14640000
C        1.97520000      -1.21330000      -0.72930000
C        2.36850000      -1.20370000       0.74140000
C        1.42380000      -2.52770000      -1.30110000
N        0.22380000      -2.85010000      -0.49010000
C        0.10290000      -1.91610000      -1.63810000
C       -0.86560000      -2.15940000      -2.75410000
H        1.09580000       1.56940000       0.41580000
H       -0.04120000       2.00780000      -0.88510000
H       -0.63270000       1.78630000       0.78380000
H        0.73900000       0.12480000      -2.00090000
H        2.78150000      -0.81630000      -1.35390000
H        1.54540000      -1.57150000       1.35610000
H        3.24100000      -1.84490000       0.91050000
H        2.63100000      -0.19540000       1.07760000
H        1.96860000      -3.30580000      -1.82320000
H       -0.12520000      -3.75120000      -0.81750000
H       -1.89030000      -1.92710000      -2.44190000
H       -0.63190000      -1.53540000      -3.62370000
H       -0.84230000      -3.20650000      -3.07640000
