20
Properties=species:S:1:pos:R:3 gdb_9408=T pbc="F F F"
C        0.07560000       1.37650000       0.07860000
O        0.02820000      -0.02980000       0.06910000
C       -1.28570000      -0.53520000      -0.01330000
C       -1.20130000      -2.05790000      -0.01890000
C       -2.57460000      -2.76150000      -0.01280000
C       -3.38770000      -2.51900000      -1.29820000
C       -2.34860000      -4.25330000       0.14700000
O       -2.73050000      -4.92100000       1.07210000
H        1.12670000       1.66820000       0.14180000
H       -0.35820000       1.80750000      -0.83800000
H       -0.46280000       1.79860000       0.94210000
H       -1.88730000      -0.18960000       0.84600000
H       -1.77990000      -0.15920000      -0.92440000
H       -0.61990000      -2.37560000      -0.89350000
H       -0.63030000      -2.36120000       0.86600000
H       -3.15180000      -2.43680000       0.86030000
H       -3.60670000      -1.45730000      -1.43640000
H       -2.83830000      -2.86470000      -2.18130000
H       -4.34220000      -3.05290000      -1.26380000
H       -1.77580000      -4.71390000      -0.69470000
