16
Properties=species:S:1:pos:R:3 gdb_27571=T pbc="F F F"
C        0.00020000       1.50300000      -0.00960000
C       -0.00150000      -0.00350000       0.02620000
N        0.05220000      -0.62150000      -1.15850000
C        0.05320000      -1.96390000      -1.18170000
C        0.00050000      -2.74600000      -0.01940000
C       -0.05500000      -2.09800000       1.20580000
C       -0.05620000      -0.70810000       1.23330000
C        0.11130000      -2.59880000      -2.46370000
C        0.15930000      -3.16490000      -3.52450000
H        0.90320000       1.86970000      -0.50760000
H       -0.85360000       1.86970000      -0.58810000
H       -0.04570000       1.93260000       0.99390000
H        0.00390000      -3.82640000      -0.09450000
H       -0.09680000      -2.66850000       2.12780000
H       -0.09890000      -0.17080000       2.17430000
H        0.20210000      -3.64850000      -4.46890000
