17
Properties=species:S:1:pos:R:3 gdb_2028=T pbc="F F F"
C       -0.65890000       1.29520000      -0.10360000
C        0.20070000       0.04990000       0.04590000
C        1.48530000      -0.07380000      -0.83520000
C        2.20990000      -0.59280000       0.40690000
C        3.04040000      -1.78910000       0.55130000
O        3.59570000      -0.46880000       0.65880000
C        1.09440000      -0.08490000       1.32050000
H       -0.05610000       2.20340000       0.01040000
H       -1.13630000       1.33360000      -1.08910000
H       -1.45200000       1.32470000       0.65190000
H       -0.41580000      -0.84730000      -0.07050000
H        1.44670000      -0.71950000      -1.71590000
H        1.86810000       0.90870000      -1.13200000
H        3.01500000      -2.36040000       1.47900000
H        3.34330000      -2.35100000      -0.33190000
H        1.34680000       0.89390000       1.74270000
H        0.75020000      -0.73930000       2.12520000
