19
Properties=species:S:1:pos:R:3 gdb_90923=T pbc="F F F"
O        0.47350000       1.21410000      -0.32390000
C        0.10330000      -0.10060000      -0.01430000
C        0.18950000      -0.47880000       1.53980000
C       -1.33900000      -0.12360000       1.62140000
C       -2.76320000      -0.81070000       1.60120000
C       -2.93540000      -0.06500000       0.18590000
C       -1.42470000      -0.41970000       0.14330000
O       -1.46520000      -1.87530000       0.09280000
C       -2.41850000      -2.21030000       1.11800000
H        0.03160000       1.81430000       0.28650000
H        0.63860000      -0.74630000      -0.71230000
H        0.44060000      -1.52670000       1.69430000
H        0.85690000       0.15530000       2.12880000
H       -1.46450000       0.94140000       1.83350000
H       -3.49140000      -0.70110000       2.40520000
H       -3.60640000      -0.52150000      -0.54630000
H       -3.14130000       0.99940000       0.30240000
H       -1.95060000      -2.83750000       1.88650000
H       -3.26970000      -2.75090000       0.68720000
