21
Properties=species:S:1:pos:R:3 gdb_72277=T pbc="F F F"
C       -0.09110000       1.57810000       0.01890000
C       -0.02120000       0.07860000      -0.05210000
C        0.60150000      -0.68130000      -1.22890000
C       -0.40540000      -1.85900000      -1.00800000
C        0.17080000      -3.12560000      -0.36760000
C        1.12610000      -2.76490000       0.77480000
O        0.60640000      -1.80210000       1.68410000
C       -0.22090000      -0.79760000       1.16450000
C       -1.15470000      -0.98940000       0.02150000
H        0.90210000       2.01130000       0.19160000
H       -0.47820000       2.00370000      -0.91500000
H       -0.74220000       1.91370000       0.83290000
H        0.38460000      -0.16680000      -2.17000000
H        1.67510000      -0.89170000      -1.19750000
H       -0.98680000      -2.09540000      -1.90060000
H       -0.65390000      -3.74260000       0.01010000
H        0.72130000      -3.72940000      -1.09900000
H        1.35590000      -3.64800000       1.37940000
H        2.07810000      -2.40230000       0.36030000
H       -0.63140000      -0.24670000       2.00610000
H       -2.23100000      -0.87320000       0.09080000
