20
Properties=species:S:1:pos:R:3 gdb_64090=T pbc="F F F"
C       -0.13700000       1.59000000       0.06160000
C       -0.02430000       0.05760000       0.02080000
C       -1.41020000      -0.58180000      -0.03930000
O        0.64180000      -0.39070000      -1.16600000
C        1.97440000       0.06080000      -1.31470000
C        2.84310000       0.01110000      -0.06040000
O        4.04740000       0.17370000      -0.12070000
N        2.17080000      -0.16390000       1.11180000
C        0.75740000      -0.49150000       1.22680000
H        0.83150000       2.07460000       0.20870000
H       -0.56870000       1.95340000      -0.87530000
H       -0.79030000       1.89990000       0.88280000
H       -1.96960000      -0.18540000      -0.89070000
H       -1.32250000      -1.66440000      -0.16260000
H       -1.97600000      -0.37460000       0.87400000
H        2.44380000      -0.57710000      -2.06760000
H        2.01750000       1.09370000      -1.69290000
H        2.76040000      -0.23320000       1.92900000
H        0.36760000      -0.05950000       2.15520000
H        0.61010000      -1.57920000       1.27820000
