22
Properties=species:S:1:pos:R:3 gdb_110304=T pbc="F F F"
C       -0.11320000       1.36810000       0.00980000
O        0.17920000      -0.01040000       0.08900000
C        0.70320000      -0.55380000      -1.09640000
C        1.26880000      -1.95940000      -0.82100000
C        0.28720000      -2.57890000      -1.78510000
C       -0.34730000      -1.19940000      -2.08520000
C       -1.80070000      -1.10970000      -1.63260000
N        1.71180000      -2.63770000      -2.01580000
C        2.38030000      -1.97090000      -3.12270000
H        0.78340000       1.95340000      -0.24650000
H       -0.89260000       1.58930000      -0.73280000
H       -0.46920000       1.67910000       0.99500000
H        1.40550000       0.15970000      -1.55420000
H        1.62170000      -2.29180000       0.14980000
H       -0.26580000      -3.51120000      -1.71220000
H       -0.25970000      -0.87410000      -3.12830000
H       -1.89920000      -1.35830000      -0.57310000
H       -2.21070000      -0.10630000      -1.78300000
H       -2.41760000      -1.80770000      -2.20910000
H        1.97130000      -0.99010000      -3.40380000
H        3.43520000      -1.83650000      -2.86430000
H        2.32870000      -2.62060000      -4.00200000
