15
Properties=species:S:1:pos:R:3 gdb_27397=T pbc="F F F"
O       -0.13880000       1.33490000      -0.02630000
C        0.04490000      -0.00740000      -0.03340000
C        1.21620000      -0.67050000      -0.05380000
C        1.26350000      -2.12980000      -0.01220000
N        2.40760000      -2.72880000      -0.03350000
C       -0.05020000      -2.77470000       0.02810000
C       -1.18440000      -2.05170000       0.04750000
O       -2.41670000      -2.61380000       0.14990000
N       -1.17260000      -0.66660000      -0.02560000
H        0.72410000       1.76070000       0.02040000
H        2.15600000      -0.13400000      -0.10780000
H        2.27050000      -3.74090000      -0.00000000
H       -0.12480000      -3.85490000       0.01860000
H       -3.03820000      -2.12920000      -0.40700000
H       -1.95210000      -0.16010000       0.36990000
