15
Properties=species:S:1:pos:R:3 gdb_130948=T pbc="F F F"
O       -0.47660000       0.48860000       0.64440000
C        0.08420000       0.98760000      -0.29490000
C        1.35690000       1.80140000      -0.21270000
C        1.22940000       3.14130000      -0.96550000
C        2.54070000       3.84520000      -1.07900000
N        2.74240000       5.04410000      -0.59920000
O        4.08160000       5.30640000      -0.92370000
C        4.52380000       4.22400000      -1.56130000
N        3.64420000       3.28510000      -1.69700000
H       -0.31360000       0.86810000      -1.33110000
H        1.61770000       1.95030000       0.83810000
H        2.15600000       1.21380000      -0.68520000
H        0.85050000       2.95300000      -1.97800000
H        0.51850000       3.80370000      -0.46510000
H        5.55050000       4.23460000      -1.89710000
