14
Properties=species:S:1:pos:R:3 gdb_98066=T pbc="F F F"
C        0.67310000       1.27940000       0.03650000
O        0.70170000      -0.15050000      -0.13930000
C        0.17690000      -0.59710000      -1.27840000
O       -0.33860000       0.06170000      -2.14030000
C        0.27080000      -2.12540000      -1.36570000
O       -0.62530000      -2.85550000      -1.02630000
C        1.58090000      -2.63640000      -1.98830000
N        1.60400000      -3.97810000      -2.11920000
O        2.45690000      -1.85210000      -2.29510000
H        1.23400000       1.76670000      -0.76380000
H       -0.35720000       1.64180000       0.02820000
H        1.13960000       1.46430000       1.00290000
H        0.80110000      -4.51260000      -1.82790000
H        2.40710000      -4.43420000      -2.51810000
