19
Properties=species:S:1:pos:R:3 gdb_32839=T pbc="F F F"
C       -0.15800000       1.55880000       0.06150000
C       -0.07170000       0.03190000       0.01630000
C        0.83190000      -0.54330000       1.12470000
C        0.91490000      -2.03040000       1.11550000
C        1.92910000      -2.90670000       0.86640000
C        1.36610000      -4.21980000       0.99790000
O        1.98860000      -5.42030000       0.84530000
C        0.05450000      -4.05160000       1.31490000
O       -0.22730000      -2.71200000       1.38890000
H        0.82990000       2.01720000      -0.06130000
H       -0.80400000       1.94310000      -0.73380000
H       -0.56550000       1.90510000       1.01790000
H       -1.07190000      -0.40380000       0.11600000
H        0.31100000      -0.29410000      -0.95830000
H        1.84720000      -0.14480000       1.02070000
H        0.45980000      -0.20260000       2.10070000
H        2.95020000      -2.65330000       0.62260000
H        2.90920000      -5.26200000       0.61890000
H       -0.75580000      -4.73090000       1.51040000
