19
Properties=species:S:1:pos:R:3 gdb_118610=T pbc="F F F"
C        0.04670000       1.42930000       0.04420000
O        0.00230000       0.02160000       0.02130000
C        0.63150000      -0.52930000      -1.10630000
C        0.57940000      -2.06160000      -0.99310000
C        1.08510000      -2.70990000      -2.30680000
C        0.93440000      -4.21740000      -2.32670000
O        0.46700000      -4.83440000      -3.24940000
C        1.33780000      -2.53240000       0.16470000
C        1.99320000      -2.92460000       1.09270000
H        1.08200000       1.80370000       0.06620000
H       -0.45960000       1.86860000      -0.82990000
H       -0.46720000       1.75570000       0.95110000
H        0.11920000      -0.21700000      -2.03230000
H        1.68080000      -0.19680000      -1.17740000
H       -0.47670000      -2.32840000      -0.85400000
H        0.55260000      -2.30310000      -3.17090000
H        2.15380000      -2.48150000      -2.42280000
H        1.29960000      -4.73270000      -1.41240000
H        2.55480000      -3.26670000       1.92670000
