23
Properties=species:S:1:pos:R:3 gdb_122434=T pbc="F F F"
C       -0.32970000       1.42390000       0.62810000
C        0.00370000       0.00200000       0.22010000
C       -1.13930000      -0.76700000      -0.41340000
C        1.40710000      -0.27580000      -0.29680000
C        0.99870000      -0.78940000       1.04960000
O        1.63740000      -0.21590000       2.14850000
C        0.90470000      -0.31630000       3.36340000
C        1.69740000       0.45460000       4.40780000
O        1.88590000       1.80260000       4.02220000
H        0.46790000       1.86740000       1.22850000
H       -0.48840000       2.05640000      -0.25290000
H       -1.24950000       1.45590000       1.22380000
H       -1.46550000      -0.29020000      -1.34560000
H       -0.84850000      -1.79470000      -0.65450000
H       -2.00590000      -0.81230000       0.25690000
H        1.54430000      -0.98470000      -1.10650000
H        2.10900000       0.55150000      -0.29570000
H        0.81480000      -1.85970000       1.16180000
H       -0.09490000       0.12350000       3.24230000
H        0.78800000      -1.37060000       3.66130000
H        1.15040000       0.46210000       5.35600000
H        2.66040000      -0.05290000       4.57620000
H        2.28060000       1.76760000       3.14320000
