18
Properties=species:S:1:pos:R:3 gdb_9802=T pbc="F F F"
C       -0.05410000       1.54340000       0.39820000
C       -0.04150000       0.05830000      -0.02510000
C        0.85390000      -0.68850000       0.94970000
O        1.93670000      -1.13740000       0.67110000
C       -1.45690000      -0.52480000      -0.07490000
C       -2.38790000       0.07160000      -1.10910000
C       -1.71470000      -1.89210000       0.40500000
O       -2.05530000      -0.75820000       1.21060000
H        0.96520000       1.93530000       0.45720000
H       -0.60450000       2.15400000      -0.32170000
H       -0.52820000       1.66030000       1.37760000
H        0.41620000      -0.03930000      -1.01580000
H        0.44430000      -0.76000000       1.98100000
H       -1.97550000      -0.04930000      -2.11640000
H       -3.36130000      -0.42310000      -1.06960000
H       -2.54690000       1.13940000      -0.93400000
H       -2.56060000      -2.45000000       0.00600000
H       -0.90010000      -2.50920000       0.78280000
