18
Properties=species:S:1:pos:R:3 gdb_99945=T pbc="F F F"
C       -0.01260000       1.53710000      -0.01100000
C       -0.02640000      -0.00840000       0.01220000
C        0.75990000      -0.52740000       1.23770000
C       -1.47040000      -0.53490000       0.03500000
O       -2.08420000      -0.04890000       1.21840000
C        0.64120000      -0.52340000      -1.25260000
O        0.12180000      -1.22190000      -2.08710000
C        2.05540000      -0.10850000      -1.44060000
N        3.15650000       0.20830000      -1.59720000
H        1.00860000       1.92760000      -0.01340000
H       -0.53310000       1.92540000      -0.89240000
H       -0.52730000       1.90570000       0.87830000
H        0.25670000      -0.18980000       2.14570000
H        0.79400000      -1.62150000       1.25300000
H        1.78600000      -0.15010000       1.24320000
H       -1.99940000      -0.19070000      -0.86480000
H       -1.45950000      -1.63360000       0.00790000
H       -2.98890000      -0.37240000       1.24240000
