25
Properties=species:S:1:pos:R:3 gdb_105228=T pbc="F F F"
C        1.03170000       1.56620000       0.28680000
C        0.17770000       0.34430000      -0.07820000
C        0.64840000      -0.38610000      -1.33400000
C        1.92880000      -1.18820000      -1.25270000
C        0.60890000      -1.90820000      -1.38630000
C        0.06300000      -2.78870000      -0.28100000
C        0.27220000       0.36390000      -2.61730000
C        0.98240000      -0.06410000      -3.90380000
O       -1.14820000       0.33250000      -2.79340000
H        2.07380000       1.28130000       0.46740000
H        1.02850000       2.32270000      -0.50450000
H        0.65290000       2.04510000       1.19520000
H        0.17230000      -0.34000000       0.77510000
H       -0.86210000       0.65330000      -0.23460000
H        2.61660000      -1.19630000      -2.09020000
H        2.41890000      -1.22940000      -0.28380000
H        0.42250000      -2.32040000      -2.37630000
H        0.36120000      -2.44200000       0.71170000
H       -1.03190000      -2.83560000      -0.30130000
H        0.43950000      -3.81190000      -0.39100000
H        0.48990000       1.42760000      -2.46500000
H        0.56700000       0.50780000      -4.73750000
H        2.05740000       0.13250000      -3.85610000
H        0.83840000      -1.12710000      -4.12710000
H       -1.40920000      -0.59540000      -2.79570000
