23
Properties=species:S:1:pos:R:3 gdb_115389=T pbc="F F F"
C       -0.02580000       1.42460000       0.02630000
O       -0.00790000       0.00780000      -0.00860000
C       -1.26350000      -0.57680000       0.02160000
C       -1.11620000      -2.07940000      -0.18580000
C       -2.47570000      -2.77640000      -0.01210000
C       -3.17460000      -2.36120000       1.30010000
C       -2.52650000      -2.98040000       2.54610000
C       -3.17860000      -0.82680000       1.37780000
O       -1.86500000      -0.29730000       1.27960000
H        1.01100000       1.75570000      -0.06260000
H       -0.60550000       1.83510000      -0.81460000
H       -0.45090000       1.79890000       0.96340000
H       -1.91210000      -0.14070000      -0.76920000
H       -0.70520000      -2.26870000      -1.18240000
H       -0.38490000      -2.44280000       0.54320000
H       -3.12390000      -2.50690000      -0.85680000
H       -2.35090000      -3.86380000      -0.05260000
H       -4.22040000      -2.69210000       1.25250000
H       -1.51520000      -2.59460000       2.70030000
H       -3.10800000      -2.74540000       3.44400000
H       -2.46830000      -4.07040000       2.46130000
H       -3.81310000      -0.41180000       0.57520000
H       -3.57700000      -0.47610000       2.33490000
