14
Properties=species:S:1:pos:R:3 gdb_93489=T pbc="F F F"
O        0.07950000       1.35670000       0.25110000
C        0.01900000      -0.02180000       0.03400000
C       -1.42660000      -0.49760000      -0.05710000
O       -1.46730000      -1.91100000      -0.32090000
C       -0.71360000      -2.42340000      -1.31220000
O       -0.88320000      -3.52870000      -1.73880000
N        0.29280000      -1.57990000      -1.81140000
C        0.71460000      -0.38700000      -1.26970000
O        1.55580000       0.32180000      -1.77640000
H        0.79440000       1.68200000      -0.31810000
H        0.52100000      -0.58480000       0.84070000
H       -1.95510000      -0.35760000       0.88570000
H       -1.95610000       0.04760000      -0.84700000
H        0.78350000      -1.93240000      -2.62290000
