11
Properties=species:S:1:pos:R:3 gdb_5346=T pbc="F F F"
C        0.01780000      -1.17630000      -0.00420000
C        0.00130000       0.02550000       0.00290000
C       -0.01790000       1.45580000       0.01150000
N       -1.21650000       2.05970000       0.03050000
C       -1.16140000       3.38870000       0.03670000
N       -0.05400000       4.13320000       0.02560000
C        1.07310000       3.41890000       0.00660000
N        1.16400000       2.09190000      -0.00150000
H        0.03320000      -2.23890000      -0.01050000
H       -2.11190000       3.91750000       0.05230000
H        2.00900000       3.97320000      -0.00310000
