21
Properties=species:S:1:pos:R:3 gdb_3991=T pbc="F F F"
C       -0.06780000       1.55200000      -0.03820000
C        0.00700000       0.02350000       0.00290000
C        0.72690000      -0.50940000       1.24620000
C        0.79090000      -2.04740000       1.28700000
C        1.52140000      -2.58030000       2.49150000
C        2.99890000      -2.33230000       2.64680000
N        0.81630000      -3.22630000       3.34070000
O        1.58830000      -3.65730000       4.43640000
H        0.93310000       1.99800000      -0.03490000
H       -0.58500000       1.90250000      -0.93690000
H       -0.60660000       1.94560000       0.83090000
H       -1.00700000      -0.39570000      -0.03440000
H        0.51900000      -0.34360000      -0.89680000
H        1.74220000      -0.09260000       1.28270000
H        0.21640000      -0.15180000       2.14980000
H       -0.22220000      -2.46060000       1.28720000
H        1.29240000      -2.40770000       0.37730000
H        3.18920000      -1.60960000       3.44820000
H        3.50860000      -3.25600000       2.93420000
H        3.43720000      -1.94710000       1.72370000
H        0.94050000      -4.14320000       4.95710000
