13
Properties=species:S:1:pos:R:3 gdb_123699=T pbc="F F F"
C       -0.02680000       1.45530000       0.13550000
C        1.28090000       0.73860000      -0.02180000
O        2.10180000       0.58960000       1.11720000
C        1.53440000      -0.27110000       2.03670000
C        0.25330000      -0.70600000       1.45990000
N       -0.54080000      -1.50980000       2.09420000
N       -1.22520000      -2.21450000       2.66150000
O        2.04580000      -0.53260000       3.08630000
C        0.01540000      -0.07140000       0.14450000
H       -0.22090000       1.97240000       1.06870000
H       -0.43570000       1.92700000      -0.75150000
H        1.85100000       0.77630000      -0.94100000
H       -0.42190000      -0.63680000      -0.66930000
