17
Properties=species:S:1:pos:R:3 gdb_46742=T pbc="F F F"
O       -0.02800000       0.06600000       0.40070000
C       -0.04530000       1.23330000       0.10890000
C       -1.30750000       2.05770000      -0.21050000
N       -0.88430000       3.34920000      -0.77710000
C        0.54380000       3.52020000      -0.51170000
C        0.97320000       4.16270000       0.82610000
N        0.35390000       3.36860000       1.91390000
C        1.59910000       2.88610000       1.27260000
C        1.15770000       2.16760000      -0.02130000
H       -1.96450000       1.50590000      -0.88990000
H       -1.84360000       2.19740000       0.73540000
H       -1.04400000       3.35250000      -1.77610000
H        1.05770000       3.97920000      -1.35810000
H        1.27250000       5.18940000       0.99940000
H        0.61240000       3.81080000       2.79460000
H        2.49480000       2.69880000       1.84950000
H        1.96550000       1.73370000      -0.61050000
