17
Properties=species:S:1:pos:R:3 gdb_4092=T pbc="F F F"
O        1.12790000      -0.86380000       0.14010000
N        0.01620000      -0.03070000       0.29800000
C       -1.06620000      -0.67720000       0.06760000
C       -1.19830000      -2.13190000      -0.33730000
C       -2.64640000      -2.24640000      -0.85640000
C       -3.42780000      -1.19410000      -0.04540000
C       -2.41580000      -0.08500000       0.16990000
N       -2.81800000       1.11320000       0.37290000
O       -1.78460000       2.02200000       0.55860000
H        1.85890000      -0.26180000       0.31920000
H       -0.43800000      -2.41320000      -1.06900000
H       -1.03600000      -2.76860000       0.54240000
H       -2.67630000      -1.98780000      -1.92030000
H       -3.05680000      -3.25330000      -0.75130000
H       -4.33510000      -0.83360000      -0.53310000
H       -3.72200000      -1.61130000       0.92730000
H       -2.26350000       2.85120000       0.66970000
