19
Properties=species:S:1:pos:R:3 gdb_36042=T pbc="F F F"
N       -0.23510000      -0.93580000       1.14620000
C       -0.05910000       0.18430000       0.92190000
C        0.17620000       1.59530000       0.63450000
C        1.58890000       1.91830000       0.14220000
C        2.76320000       1.12330000       0.66850000
C        2.30120000       0.96360000      -0.76710000
N        1.64110000       3.33610000      -0.14320000
C        2.10270000       4.24010000       0.91190000
C        2.91550000       4.01550000      -0.31500000
H       -0.54340000       1.93080000      -0.12070000
H       -0.03200000       2.17250000       1.54390000
H        3.70410000       1.63120000       0.84810000
H        2.56270000       0.31110000       1.35820000
H        1.80580000       0.03990000      -1.04500000
H        2.91920000       1.39680000      -1.54600000
H        1.52880000       5.15330000       1.03830000
H        2.47530000       3.79480000       1.83240000
H        3.83930000       3.45320000      -0.20260000
H        2.93690000       4.75780000      -1.10770000
