19
Properties=species:S:1:pos:R:3 gdb_80870=T pbc="F F F"
O        0.09200000       1.40010000       0.09160000
C        0.09480000      -0.00780000       0.08830000
C        0.12070000      -0.64800000       1.50050000
C       -1.39470000      -0.28950000       1.60250000
C       -1.35130000      -0.61000000       0.08780000
O       -2.31960000      -0.11550000      -0.78130000
C       -1.07620000      -2.11340000       0.07370000
O       -0.71300000      -2.47150000      -1.25470000
C        0.07350000      -2.14900000       1.13620000
H       -0.59360000       1.67360000      -0.53110000
H        0.80540000      -0.40310000      -0.64810000
H        0.83740000      -0.32650000       2.25380000
H       -2.03520000      -0.90710000       2.23860000
H       -1.55790000       0.76940000       1.79130000
H       -2.23400000      -0.62180000      -1.60020000
H       -1.95990000      -2.68420000       0.38880000
H       -0.64860000      -3.42910000      -1.31130000
H        1.00400000      -2.50570000       0.68400000
H       -0.16490000      -2.78290000       1.99470000
