19
Properties=species:S:1:pos:R:3 gdb_79084=T pbc="F F F"
C       -0.17900000       1.56360000      -0.00050000
C        0.01060000       0.05400000       0.00750000
C        1.23680000      -0.59880000      -0.68730000
C        2.17050000      -0.19460000       0.51230000
C        3.16080000      -1.33090000       0.72250000
C        2.42980000      -2.42860000       0.53580000
C        1.03920000      -1.88230000       0.22260000
O       -0.02620000      -2.75980000       0.03340000
C        0.79980000      -0.64390000       1.15120000
H        0.73820000       2.11110000       0.23500000
H       -0.52380000       1.90490000      -0.98320000
H       -0.93840000       1.86150000       0.73120000
H       -0.93080000      -0.45110000      -0.22640000
H        1.50630000      -0.58630000      -1.74850000
H        2.50440000       0.83460000       0.61650000
H        4.20760000      -1.22930000       0.97230000
H        2.69580000      -3.47480000       0.59620000
H        0.16100000      -3.30160000      -0.74020000
H        0.56310000      -0.68070000       2.21850000
