18
Properties=species:S:1:pos:R:3 gdb_41248=T pbc="F F F"
C        0.03020000       1.48220000      -0.23840000
O        1.43820000       1.57860000       0.17280000
C        1.29410000       0.34290000       0.87220000
C        1.99800000      -1.01140000       1.01950000
C        0.73500000      -1.25280000       1.91040000
C        0.75870000       0.22660000       2.36060000
C       -0.76340000       0.20050000       2.31780000
N       -0.65440000      -0.82330000       1.21060000
C        0.02730000      -0.03040000       0.14620000
H       -0.60020000       2.15820000       0.34580000
H       -0.08550000       1.69470000      -1.30430000
H        2.17860000      -1.59960000       0.11700000
H        2.87260000      -1.03050000       1.67750000
H        0.62490000      -2.10510000       2.57500000
H        1.38500000       0.60630000       3.16780000
H       -1.19320000      -0.27100000       3.20630000
H       -1.34550000       1.09160000       2.07030000
H        0.16990000      -0.65330000      -0.73800000
