23
Properties=species:S:1:pos:R:3 gdb_58235=T pbc="F F F"
C        0.21850000       1.57590000       0.09910000
C        0.04130000       0.05760000       0.00520000
O       -1.31850000      -0.30940000       0.20580000
C        0.62010000      -0.57040000      -1.29170000
C        0.52730000      -2.10360000      -1.22700000
C       -0.03510000      -0.03330000      -2.56100000
O       -1.44930000      -0.15650000      -2.59720000
C        0.46630000       1.20240000      -3.24420000
C        0.67060000      -0.15490000      -3.88770000
H        1.27300000       1.86320000       0.01860000
H       -0.33680000       2.09180000      -0.68990000
H       -0.16100000       1.92620000       1.06290000
H        0.58230000      -0.40000000       0.84410000
H       -1.78210000      -0.06010000      -0.60590000
H        1.68070000      -0.29050000      -1.34260000
H        1.09880000      -2.49090000      -0.37790000
H       -0.50910000      -2.42340000      -1.08330000
H        0.91930000      -2.56580000      -2.13830000
H       -1.65940000      -1.08870000      -2.72650000
H       -0.28100000       1.85310000      -3.68340000
H        1.32690000       1.71100000      -2.82570000
H        1.67030000      -0.57590000      -3.90730000
H        0.05910000      -0.38880000      -4.75220000
