21
Properties=species:S:1:pos:R:3 gdb_63940=T pbc="F F F"
C        0.25020000       1.51790000      -0.01540000
C        0.04780000       0.01220000       0.00680000
O       -1.33000000      -0.32930000      -0.08820000
C        0.93210000      -0.85720000      -0.95530000
C        1.45430000      -1.69070000       0.24420000
C        2.69140000      -1.09080000       0.91970000
O        1.88490000      -0.15800000       1.67660000
C        0.64970000      -0.77280000       1.22020000
C       -0.24240000      -1.19810000       2.35430000
H        1.29080000       1.77420000       0.19180000
H       -0.01920000       1.92610000      -0.99790000
H       -0.38200000       1.99690000       0.73870000
H       -1.67410000       0.06300000      -0.89810000
H        0.31660000      -1.42890000      -1.65310000
H        1.70390000      -0.32030000      -1.51500000
H        1.35730000      -2.77430000       0.19890000
H        3.23130000      -1.77650000       1.58590000
H        3.41510000      -0.58490000       0.26780000
H       -0.53650000      -0.32520000       2.94770000
H       -1.14880000      -1.67320000       1.97450000
H        0.28490000      -1.89380000       3.01420000
