17
Properties=species:S:1:pos:R:3 gdb_76354=T pbc="F F F"
C       -0.08610000       1.55620000       0.11180000
C        0.02220000       0.05710000      -0.04600000
C        0.68280000      -0.61710000      -1.20330000
C        1.32380000       0.11750000      -2.35810000
C        1.37620000      -0.66510000       0.18420000
C        2.55340000       0.13840000       0.38820000
N        3.48690000       0.80550000       0.53250000
C        1.35270000      -1.91560000       0.89950000
N        1.29850000      -2.92730000       1.45680000
H        0.80220000       2.08120000      -0.24390000
H       -0.94970000       1.92540000      -0.45040000
H       -0.23060000       1.81950000       1.16350000
H       -0.80300000      -0.49680000       0.39200000
H        0.25980000      -1.58130000      -1.46960000
H        1.83040000       1.03200000      -2.04480000
H        2.06190000      -0.52010000      -2.85300000
H        0.56010000       0.38490000      -3.09540000
