16
Properties=species:S:1:pos:R:3 gdb_123799=T pbc="F F F"
C       -0.35730000       1.14500000      -0.18280000
C        1.09570000       1.08250000       0.21530000
C        0.31110000      -0.18680000       0.02320000
N       -0.01200000      -0.93640000       1.20300000
C       -1.09970000      -1.76780000       1.21780000
N       -1.28150000      -2.72340000       2.13110000
N       -2.46850000      -3.19780000       1.74460000
N       -2.98980000      -2.61020000       0.68970000
N       -2.12970000      -1.68770000       0.32830000
H       -1.07150000       1.45430000       0.57010000
H       -0.61140000       1.42760000      -1.19750000
H        1.85350000       1.32570000      -0.52040000
H        1.34670000       1.35890000       1.23330000
H        0.51760000      -0.77240000      -0.87160000
H        0.77030000      -1.28620000       1.73650000
H       -2.93240000      -3.95390000       2.22390000
