19
Properties=species:S:1:pos:R:3 gdb_35775=T pbc="F F F"
C        0.09470000      -1.23430000       0.07410000
C        0.02730000      -0.03420000       0.04270000
C       -0.03910000       1.42330000       0.02610000
C       -0.78430000       1.98330000       1.25880000
C       -1.01620000       3.49210000       1.10720000
C        0.25750000       4.23600000       0.77530000
O        1.40130000       3.91200000       1.56890000
C        1.40960000       3.53220000       0.18450000
C        1.37750000       2.04120000      -0.09960000
H        0.14850000      -2.29450000       0.09490000
H       -0.61330000       1.72500000      -0.86260000
H       -1.74090000       1.46690000       1.37620000
H       -0.19330000       1.78400000       2.15790000
H       -1.74380000       3.68370000       0.30680000
H       -1.44810000       3.90420000       2.02700000
H        0.14380000       5.30220000       0.57230000
H        2.11190000       4.11110000      -0.41580000
H        2.05500000       1.54220000       0.60180000
H        1.76710000       1.84950000      -1.10430000
