18
Properties=species:S:1:pos:R:3 gdb_98860=T pbc="F F F"
O        0.34150000       1.34480000       0.36480000
C        0.02520000      -0.00300000       0.52070000
C       -1.13470000      -0.41930000      -0.36260000
O       -1.67140000       0.40970000      -1.07340000
C       -1.54980000      -1.87310000      -0.38500000
N       -3.00540000      -2.10640000      -0.41000000
C       -2.89340000      -3.09860000      -1.50120000
C       -1.46880000      -2.56520000      -1.81310000
O       -1.34150000      -1.71060000      -2.90490000
H       -0.29350000       1.68050000      -0.28800000
H        0.88460000      -0.65310000       0.27800000
H       -0.24440000      -0.23810000       1.56550000
H       -0.99470000      -2.44480000       0.37280000
H       -3.41110000      -2.43050000       0.45980000
H       -2.88870000      -4.14910000      -1.17850000
H       -3.62850000      -2.97300000      -2.30290000
H       -0.68770000      -3.32140000      -1.90650000
H       -1.85540000      -0.91020000      -2.72110000
