21
Properties=species:S:1:pos:R:3 gdb_41203=T pbc="F F F"
C        0.06380000       1.60740000      -0.12310000
O        1.53570000       1.44470000       0.00330000
C        1.17930000       0.27970000       0.85520000
C        1.25520000      -1.26700000       1.15600000
C       -0.35240000      -1.07870000       1.14220000
C       -0.07110000       0.06240000       0.09310000
C        0.15460000      -0.65080000      -1.27710000
C        1.46620000      -1.44960000      -1.32660000
C        1.72490000      -2.16000000       0.01120000
H       -0.32280000       2.23100000       0.69270000
H       -0.20450000       2.02370000      -1.09780000
H        0.96880000       0.72850000       1.83760000
H        1.69720000      -1.54950000       2.11460000
H       -0.92910000      -1.93950000       0.79250000
H       -0.72930000      -0.74400000       2.11010000
H       -0.70530000      -1.31020000      -1.45120000
H        0.15020000       0.08060000      -2.08950000
H        1.46830000      -2.15700000      -2.16210000
H        2.28100000      -0.74020000      -1.50190000
H        2.79140000      -2.38610000       0.11960000
H        1.19670000      -3.12050000       0.06290000
