16
Properties=species:S:1:pos:R:3 gdb_74070=T pbc="F F F"
N        0.15340000       1.31450000       0.13110000
C       -0.02440000      -0.03820000       0.04190000
C       -1.15510000      -0.76940000       0.02370000
C       -0.83640000      -2.20380000      -0.00450000
O       -1.58760000      -3.14470000      -0.02930000
N        0.59330000      -2.27610000      -0.00300000
C        1.17870000      -0.94840000       0.03340000
C        1.40360000      -3.39770000      -0.03040000
N        0.98510000      -4.59580000      -0.06540000
H        1.02660000       1.69550000      -0.19790000
H       -0.64530000       1.89800000      -0.06310000
H       -2.17550000      -0.41610000       0.02780000
H        1.81600000      -0.75720000      -0.84270000
H        1.79370000      -0.79210000       0.93050000
H        2.46400000      -3.10550000      -0.01760000
H        1.78190000      -5.23060000      -0.07890000
