17
Properties=species:S:1:pos:R:3 gdb_29999=T pbc="F F F"
C        0.01180000       1.45070000       0.05490000
N        0.00900000       0.00940000       0.02070000
C       -0.03750000      -0.80060000      -1.11920000
C       -0.02810000      -2.12680000      -0.76200000
C        0.02650000      -2.17100000       0.67000000
C        0.04650000      -0.84390000       1.08590000
N        0.09910000      -0.76870000       2.44960000
C        0.11320000      -2.08250000       2.92460000
C        0.07000000      -2.95840000       1.86720000
H        0.91820000       1.83980000       0.53590000
H       -0.01940000       1.83060000      -0.96770000
H       -0.86130000       1.84290000       0.59170000
H       -0.07350000      -0.33580000      -2.09210000
H       -0.05660000      -2.95580000      -1.45230000
H        0.12260000       0.05580000       3.02050000
H        0.15300000      -2.26680000       3.98610000
H        0.07020000      -4.03410000       1.95380000
