19
Properties=species:S:1:pos:R:3 gdb_122608=T pbc="F F F"
C        0.06590000       1.39570000       0.06090000
O       -0.16900000       0.02230000      -0.13850000
C        0.69320000      -0.54760000      -1.09660000
C        0.37340000      -2.03480000      -1.19780000
C        1.26090000      -2.74210000      -2.20890000
O        2.66530000      -2.78160000      -1.83660000
C        2.73600000      -4.22120000      -1.83820000
C        1.24790000      -4.27970000      -2.20660000
O        0.43400000      -5.13050000      -2.39010000
H        1.09120000       1.58800000       0.41480000
H       -0.09130000       1.97620000      -0.86220000
H       -0.64050000       1.74160000       0.81930000
H        0.55880000      -0.06000000      -2.07890000
H        1.74730000      -0.40920000      -0.80700000
H        0.49180000      -2.49470000      -0.21090000
H       -0.67210000      -2.16700000      -1.49860000
H        1.13430000      -2.31290000      -3.21430000
H        3.41870000      -4.61880000      -2.60030000
H        2.99990000      -4.64180000      -0.85970000
