23
Properties=species:S:1:pos:R:3 gdb_103943=T pbc="F F F"
C       -0.46590000       1.35440000      -0.26630000
C       -0.02660000      -0.11230000      -0.21490000
C        1.07020000      -0.47110000      -1.22050000
C        2.37880000       0.27350000      -0.99950000
C        1.21070000      -1.99490000      -1.49100000
C        0.65380000      -1.65480000      -2.86510000
C        1.02210000      -2.17420000      -4.21430000
C       -0.39450000      -2.34510000      -3.67490000
O        0.58970000      -0.25690000      -2.59060000
H        0.32520000       2.03300000       0.06680000
H       -0.74210000       1.62890000      -1.28840000
H       -1.33410000       1.52120000       0.37820000
H        0.32420000      -0.37430000       0.79230000
H       -0.89140000      -0.75330000      -0.42200000
H        2.77550000       0.06970000       0.00150000
H        3.12260000      -0.03870000      -1.73750000
H        2.23740000       1.35320000      -1.09980000
H        2.23740000      -2.36810000      -1.48470000
H        0.58530000      -2.63920000      -0.86880000
H        1.16830000      -1.44200000      -5.00140000
H        1.66390000      -3.04720000      -4.27970000
H       -0.72170000      -3.33500000      -3.37240000
H       -1.16890000      -1.72250000      -4.11050000
