18
Properties=species:S:1:pos:R:3 gdb_44199=T pbc="F F F"
N       -0.02280000       1.17760000      -0.01650000
C       -0.06330000      -0.07340000      -0.05880000
O        0.97040000      -1.00280000      -0.22450000
C        0.03330000      -2.08630000       0.01430000
C       -1.12580000      -1.11040000       0.09510000
C       -0.98970000      -2.10690000      -1.05640000
C       -0.77110000      -1.91740000      -2.56100000
C       -1.41010000      -3.32410000      -2.77010000
C       -1.92750000      -3.29790000      -1.29980000
H        0.93100000       1.52010000      -0.14380000
H        0.35540000      -2.89110000       0.66210000
H       -1.99220000      -1.06460000       0.73920000
H       -1.38210000      -1.11000000      -2.97370000
H        0.26220000      -1.77890000      -2.88370000
H       -2.16890000      -3.40710000      -3.55010000
H       -0.65910000      -4.10110000      -2.92910000
H       -1.76540000      -4.19220000      -0.69200000
H       -2.98280000      -3.01740000      -1.23170000
