16
Properties=species:S:1:pos:R:3 gdb_29407=T pbc="F F F"
C        0.15880000       1.47520000      -0.02490000
C       -0.01880000      -0.01020000       0.00860000
C       -0.24380000      -0.83440000      -1.04620000
O       -0.36070000      -2.13950000      -0.62920000
C       -0.19040000      -2.11800000       0.71320000
O       -0.32510000      -3.28430000       1.37690000
C        0.25180000      -4.40510000       0.84280000
N        0.03900000      -5.51190000       1.39850000
C        0.02070000      -0.86130000       1.17290000
H        1.13540000       1.77030000       0.37500000
H        0.08550000       1.85830000      -1.04630000
H       -0.60250000       1.98170000       0.57880000
H       -0.34220000      -0.67630000      -2.10690000
H        0.85800000      -4.19500000      -0.04220000
H        0.54110000      -6.24950000       0.90830000
H        0.18540000      -0.57660000       2.19910000
