18
Properties=species:S:1:pos:R:3 gdb_30866=T pbc="F F F"
C        0.27910000       0.99120000      -0.47190000
O       -0.22490000       0.23790000       0.63210000
C       -1.29920000      -0.54200000       0.34560000
C       -1.38670000      -1.86290000      -0.00210000
C       -0.23840000      -2.80070000      -0.20890000
C       -2.79150000      -2.16370000      -0.12420000
C       -3.47820000      -1.01170000       0.15580000
O       -4.80000000      -0.69900000       0.21290000
N       -2.58450000      -0.01360000       0.42590000
H        1.14050000       1.55210000      -0.10230000
H        0.59260000       0.33040000      -1.28880000
H       -0.47340000       1.69310000      -0.85400000
H       -0.32940000      -3.69460000       0.41960000
H       -0.16780000      -3.14680000      -1.24760000
H        0.70540000      -2.31110000       0.04690000
H       -3.22390000      -3.11640000      -0.39140000
H       -5.30320000      -1.50020000       0.03950000
H       -2.82250000       0.89420000       0.78640000
