15
Properties=species:S:1:pos:R:3 gdb_127020=T pbc="F F F"
C        0.02020000       1.46500000      -0.06820000
C       -0.02020000      -0.04810000      -0.02230000
O        0.72350000      -0.53150000      -1.17000000
C        0.81940000      -1.82950000      -1.33120000
N        1.44810000      -2.42680000      -2.30350000
C        1.22740000      -3.73900000      -1.97860000
O        1.70400000      -4.73600000      -2.72140000
N        0.52340000      -3.97770000      -0.89950000
O        0.24140000      -2.64800000      -0.45210000
H        1.04990000       1.82830000      -0.01930000
H       -0.43790000       1.83860000      -0.98760000
H       -0.53200000       1.87000000       0.78460000
H        0.44290000      -0.44370000       0.88700000
H       -1.04280000      -0.43340000      -0.08000000
H        2.18470000      -4.33420000      -3.45560000
