17
Properties=species:S:1:pos:R:3 gdb_125685=T pbc="F F F"
C        0.20060000       1.52690000      -0.11280000
C        0.05530000       0.04410000      -0.00550000
N        0.07040000      -0.74870000      -1.08060000
N       -0.08500000      -1.96340000      -0.57420000
N       -0.19690000      -2.04410000       0.74440000
C       -0.11540000      -0.77040000       1.13900000
C       -0.19530000      -0.38730000       2.56190000
C       -1.24430000      -0.98530000       3.44010000
N        0.16180000      -1.36560000       3.60470000
H        1.04520000       1.89020000       0.48250000
H        0.36840000       1.80850000      -1.15400000
H       -0.69590000       2.04620000       0.24280000
H       -0.09820000      -2.78320000      -1.15830000
H        0.13640000       0.62570000       2.77370000
H       -1.66340000      -0.40030000       4.25430000
H       -1.92500000      -1.69270000       2.97500000
H        0.32080000      -2.26380000       3.15150000
