25
Properties=species:S:1:pos:R:3 gdb_58738=T pbc="F F F"
C       -0.01590000       1.52870000      -0.01720000
C       -0.05000000      -0.00580000       0.03420000
C        0.74530000      -0.53710000       1.23570000
C       -1.47230000      -0.52820000       0.03710000
C       -2.57540000      -0.26920000      -1.03620000
C       -3.24870000      -1.19010000       0.02520000
C       -4.65970000      -1.71530000       0.01660000
C       -1.93010000      -2.02020000       0.02300000
C       -2.58420000      -0.28860000       1.11060000
H        1.01480000       1.89520000      -0.06340000
H       -0.54880000       1.91300000      -0.89240000
H       -0.48250000       1.96070000       0.87550000
H        0.42870000      -0.38470000      -0.88130000
H        0.30950000      -0.18780000       2.17880000
H        0.75680000      -1.63120000       1.25750000
H        1.78330000      -0.19050000       1.20120000
H       -2.96210000       0.75200000      -1.11200000
H       -2.40620000      -0.70480000      -2.02660000
H       -4.84920000      -2.32370000      -0.87490000
H       -4.85360000      -2.34030000       0.89550000
H       -5.38620000      -0.89500000       0.02240000
H       -1.71120000      -2.59050000      -0.88590000
H       -1.72300000      -2.60990000       0.92170000
H       -2.42760000      -0.74370000       2.09370000
H       -2.97130000       0.73120000       1.20160000
