19
Properties=species:S:1:pos:R:3 gdb_31667=T pbc="F F F"
C       -0.60860000       0.80390000       0.17570000
O        0.72690000       0.31130000       0.10420000
C        1.00220000      -0.37520000      -1.05050000
C        1.67780000       0.09670000      -2.15530000
N        1.74890000      -0.92200000      -3.06820000
C        2.51760000      -0.89620000      -4.29040000
C        1.13700000      -2.04700000      -2.54630000
C        0.65570000      -1.73740000      -1.29240000
N       -0.11010000      -2.52360000      -0.40920000
H       -0.80400000       1.52950000      -0.62490000
H       -1.34010000      -0.01030000       0.09980000
H       -0.71200000       1.29790000       1.14520000
H        2.12050000       1.06050000      -2.34680000
H        3.53770000      -1.27620000      -4.14860000
H        2.02370000      -1.50660000      -5.05200000
H        2.57800000       0.12970000      -4.66180000
H        1.09580000      -2.96410000      -3.11210000
H        0.05780000      -3.51500000      -0.52760000
H        0.09150000      -2.27280000       0.55230000
