17
Properties=species:S:1:pos:R:3 gdb_11549=T pbc="F F F"
C       -0.24150000       0.87010000       0.89610000
O       -0.50730000      -0.46720000       0.45080000
C       -1.37860000      -0.57100000      -0.57830000
O       -1.88450000       0.37540000      -1.12340000
C       -1.64600000      -2.02980000      -0.89800000
C       -2.71520000      -2.59320000       0.02480000
C       -2.59680000      -3.97710000       0.54590000
N       -2.41610000      -2.82420000       1.44430000
H        0.47990000       0.77560000       1.70770000
H        0.17250000       1.47030000       0.08240000
H       -1.15880000       1.34530000       1.25260000
H       -1.97600000      -2.09030000      -1.93820000
H       -0.71930000      -2.60050000      -0.78350000
H       -3.70880000      -2.18430000      -0.14610000
H       -3.48780000      -4.56950000       0.73360000
H       -1.72450000      -4.55490000       0.24960000
H       -1.42720000      -2.65580000       1.61440000
