20
Properties=species:S:1:pos:R:3 gdb_33500=T pbc="F F F"
C       -0.19730000      -0.87520000       0.89470000
C       -0.19100000       0.23090000       0.41890000
C       -0.14190000       1.55320000      -0.14880000
C       -0.97420000       1.82610000      -1.41110000
N       -2.43110000       1.86390000      -1.34980000
C       -3.20120000       0.77590000      -0.76450000
C       -3.14360000       2.11360000      -0.10540000
C        0.10730000       2.71850000       0.80340000
C        1.21590000       2.25090000      -0.08680000
H       -0.21430000      -1.85150000       1.31180000
H       -0.65470000       2.80520000      -1.78990000
H       -0.70520000       1.08810000      -2.17540000
H       -4.08160000       0.48020000      -1.33030000
H       -2.67520000      -0.03600000      -0.27190000
H       -2.57950000       2.17240000       0.82150000
H       -3.98090000       2.80370000      -0.17400000
H       -0.38470000       3.65530000       0.56440000
H        0.16880000       2.49560000       1.86190000
H        2.03290000       1.69650000       0.35850000
H        1.49230000       2.86150000      -0.93980000
