20
Properties=species:S:1:pos:R:3 gdb_86573=T pbc="F F F"
C       -0.21390000       1.49460000       0.04710000
C        0.03440000      -0.00770000      -0.05900000
C        1.30090000      -0.39010000      -0.89270000
C        2.09010000      -0.51030000       0.44300000
C        0.73290000      -0.63450000       1.17770000
O        0.56420000       0.03380000       2.39740000
C        3.09510000      -1.59670000       0.75300000
N        3.83740000      -2.05640000      -0.29260000
O        3.21900000      -2.02550000       1.88880000
H        0.69530000       2.04160000       0.31570000
H       -0.57650000       1.89040000      -0.90750000
H       -0.96080000       1.71020000       0.81590000
H       -0.88760000      -0.51200000      -0.36140000
H        1.18890000      -1.35340000      -1.39880000
H        1.65090000       0.35110000      -1.61580000
H        2.54700000       0.45010000       0.70550000
H        0.46680000      -1.69750000       1.26800000
H        1.15380000      -0.39700000       3.02760000
H        3.75220000      -1.67030000      -1.21610000
H        4.54840000      -2.74700000      -0.11490000
