20
Properties=species:S:1:pos:R:3 gdb_33462=T pbc="F F F"
N        0.31510000      -1.11490000      -0.07130000
C        0.20790000       0.03660000      -0.02420000
C        0.05360000       1.47070000       0.01850000
C        0.42110000       2.15290000       1.33110000
C        1.33440000       2.28630000       0.15130000
C       -1.09310000       2.02200000      -0.80680000
C       -1.20920000       1.65560000      -2.31450000
C       -2.75090000       1.60420000      -2.13730000
C       -2.53110000       1.46280000      -0.60670000
H       -0.19000000       3.00250000       1.61490000
H        0.73510000       1.52400000       2.15530000
H        2.27490000       1.74890000       0.16620000
H        1.35800000       3.22860000      -0.38480000
H       -1.09560000       3.11080000      -0.68580000
H       -0.79230000       2.35790000      -3.04010000
H       -0.79670000       0.66140000      -2.50970000
H       -3.22230000       2.55700000      -2.39460000
H       -3.28940000       0.80160000      -2.64470000
H       -2.50490000       0.41220000      -0.30290000
H       -3.19720000       2.00710000       0.06670000
