17
Properties=species:S:1:pos:R:3 gdb_88148=T pbc="F F F"
O       -0.37700000       1.40840000       0.04360000
C       -0.09640000       0.05450000      -0.04600000
C       -0.13460000      -0.82290000       1.17320000
C       -1.27170000      -0.90070000       0.19040000
O       -2.49270000      -0.28720000       0.52390000
C       -3.41040000      -0.58380000      -0.55050000
C       -3.02900000      -1.98550000      -1.03710000
C       -1.53080000      -2.04930000      -0.71510000
O       -0.71910000      -2.84580000      -1.11670000
H       -1.28840000       1.47980000       0.36390000
H        0.60430000      -0.18260000      -0.83990000
H        0.51790000      -1.68960000       1.20740000
H       -0.35490000      -0.34660000       2.12270000
H       -4.41900000      -0.50630000      -0.14190000
H       -3.29380000       0.15610000      -1.35420000
H       -3.53450000      -2.76430000      -0.45460000
H       -3.22200000      -2.17060000      -2.09500000
