20
Properties=species:S:1:pos:R:3 gdb_81843=T pbc="F F F"
C       -0.09090000       1.58110000      -0.07000000
C        0.04870000       0.06590000      -0.02390000
C        0.71960000      -0.64120000      -1.20770000
N        2.13070000      -0.17850000      -1.22560000
C        1.72770000      -1.29420000      -0.33030000
C        2.38220000      -2.63950000      -0.38340000
C        1.14170000      -0.61020000       0.92510000
C        2.06220000       0.28980000       1.70700000
O        2.00720000       0.42910000       2.90560000
H        0.84530000       2.04980000      -0.38290000
H       -0.87030000       1.87040000      -0.78360000
H       -0.37080000       1.98270000       0.90930000
H       -0.91540000      -0.39950000       0.19930000
H        0.25060000      -0.99960000      -2.11690000
H        2.57640000      -0.59590000      -2.04220000
H        2.49650000      -2.97860000      -1.41900000
H        3.37790000      -2.61760000       0.07470000
H        1.78690000      -3.38710000       0.15140000
H        0.67000000      -1.31090000       1.61720000
H        2.81140000       0.83340000       1.09550000
