18
Properties=species:S:1:pos:R:3 gdb_17522=T pbc="F F F"
C        0.00440000       1.36760000       0.02220000
O        0.02100000      -0.04640000      -0.01950000
C       -1.23590000      -0.61530000       0.00000000
C       -2.15720000      -0.54930000       1.25960000
C       -2.69410000      -1.89510000       0.77450000
C       -2.73830000      -1.85020000      -0.76270000
C       -2.22780000      -0.47770000      -1.19870000
C       -1.45530000      -2.17810000      -0.03930000
H        1.04420000       1.70050000       0.00280000
H       -0.52250000       1.79410000      -0.84340000
H       -0.47240000       1.74200000       0.93950000
H       -1.56880000      -0.66440000       2.17430000
H       -2.84780000       0.29660000       1.35560000
H       -3.29410000      -2.60620000       1.32680000
H       -3.37030000      -2.52900000      -1.32000000
H       -2.92130000       0.37130000      -1.20550000
H       -1.69310000      -0.53840000      -2.15080000
H       -0.77750000      -3.01690000      -0.08320000
