17
Properties=species:S:1:pos:R:3 gdb_88220=T pbc="F F F"
C        1.27330000       1.03930000      -0.49690000
C        0.18850000       0.09150000      -0.06380000
O        0.58510000      -1.13150000       0.54570000
C       -0.13340000      -0.18720000       1.35930000
C        0.57420000       0.43840000       2.43890000
C        1.12840000       0.97200000       3.37070000
C        1.79720000       1.60730000       4.49210000
C        3.28660000       1.35020000       4.59050000
O        1.18740000       2.29170000       5.28570000
H        2.03770000       1.13970000       0.27610000
H        1.74730000       0.67190000      -1.41270000
H        0.85200000       2.02770000      -0.70750000
H       -0.64650000      -0.01640000      -0.75910000
H       -1.15270000      -0.49090000       1.59580000
H        3.47730000       0.27480000       4.67340000
H        3.78950000       1.69420000       3.68030000
H        3.68950000       1.87060000       5.46060000
