19
Properties=species:S:1:pos:R:3 gdb_114108=T pbc="F F F"
C        0.17130000       1.63820000       0.46760000
O        0.56910000       0.38430000      -0.04070000
C        0.70250000      -0.59280000       0.94220000
C       -0.57990000      -1.24220000       1.57250000
C        0.01660000      -2.64970000       1.26010000
O        0.28460000      -3.51090000       2.32090000
C       -0.43880000      -3.21570000      -0.09620000
O        0.51500000      -2.37640000      -0.78960000
C        1.15460000      -1.97360000       0.43610000
H        0.89520000       2.02780000       1.20080000
H        0.11720000       2.32800000      -0.37770000
H       -0.81660000       1.59280000       0.95050000
H        1.38050000      -0.25880000       1.74570000
H       -0.71700000      -1.04170000       2.63760000
H       -1.50390000      -1.02060000       1.03270000
H       -0.51750000      -3.60920000       2.84520000
H       -0.20020000      -4.28130000      -0.21390000
H       -1.47140000      -3.02590000      -0.41400000
H        2.21480000      -2.23590000       0.46790000
