25
Properties=species:S:1:pos:R:3 gdb_122449=T pbc="F F F"
C        0.23020000       1.39120000       0.12490000
O       -0.08030000       0.03540000      -0.07830000
C        0.69580000      -0.56020000      -1.09590000
C        0.28360000      -2.02250000      -1.23080000
C        1.06940000      -2.73320000      -2.31270000
C        2.43360000      -3.33260000      -2.03420000
C        1.26800000      -4.23490000      -2.37340000
C        0.70040000      -5.13170000      -1.28850000
C        1.25470000      -4.87150000      -3.75170000
H        1.28100000       1.53130000       0.42660000
H        0.05440000       1.99320000      -0.78140000
H       -0.41730000       1.76140000       0.92390000
H        0.54600000      -0.02880000      -2.05260000
H        1.77040000      -0.48780000      -0.85520000
H        0.42370000      -2.50570000      -0.25880000
H       -0.79140000      -2.06020000      -1.44730000
H        0.96930000      -2.26280000      -3.28990000
H        3.22420000      -3.20090000      -2.76610000
H        2.77970000      -3.32370000      -1.00450000
H        0.76040000      -4.67780000      -0.29650000
H       -0.35180000      -5.37250000      -1.48290000
H        1.25180000      -6.07860000      -1.24950000
H        1.84150000      -5.79800000      -3.76350000
H        0.23330000      -5.12370000      -4.06170000
H        1.67640000      -4.20130000      -4.50740000
