21
Properties=species:S:1:pos:R:3 gdb_59793=T pbc="F F F"
C        0.09390000       1.55880000       0.02050000
C        0.02250000       0.03180000      -0.02780000
O        0.79220000      -0.54520000       1.02780000
C       -1.41260000      -0.51890000      -0.01760000
C       -2.25060000      -0.05420000      -1.21970000
O       -3.52410000      -0.68340000      -1.22670000
C       -3.40410000      -2.08140000      -1.21900000
O       -2.74460000      -2.56170000      -0.08130000
C       -1.41840000      -2.05630000      -0.00790000
H        1.13800000       1.87550000       0.08880000
H       -0.34500000       2.01860000      -0.87010000
H       -0.44150000       1.94770000       0.89580000
H        0.52320000      -0.31730000      -0.94080000
H        0.43810000      -0.21450000       1.86130000
H       -1.91920000      -0.17310000       0.89500000
H       -2.44350000       1.02070000      -1.19510000
H       -1.71270000      -0.28380000      -2.15750000
H       -4.41670000      -2.48910000      -1.20380000
H       -2.86910000      -2.41420000      -2.13090000
H       -0.82540000      -2.43220000      -0.86060000
H       -0.97520000      -2.44960000       0.90710000
