18
Properties=species:S:1:pos:R:3 gdb_116120=T pbc="F F F"
O       -0.09760000       1.41550000       0.12790000
C        0.02380000       0.00510000       0.01560000
C       -1.39230000      -0.56100000      -0.04410000
C       -1.41810000      -2.08330000      -0.14450000
C       -2.81920000      -2.56310000       0.20300000
O       -3.17430000      -2.19010000       1.53650000
C       -2.91710000      -0.91900000       1.95940000
O       -3.37350000      -0.52870000       3.00470000
N       -2.12670000      -0.15490000       1.14460000
H        0.76270000       1.78410000       0.34690000
H        0.57000000      -0.28150000      -0.89650000
H        0.54790000      -0.42340000       0.88270000
H       -1.87500000      -0.13320000      -0.93660000
H       -1.14210000      -2.40500000      -1.15300000
H       -0.70500000      -2.52610000       0.56100000
H       -3.55510000      -2.15120000      -0.50170000
H       -2.89540000      -3.65230000       0.17510000
H       -1.96060000       0.78120000       1.48030000
