16
Properties=species:S:1:pos:R:3 gdb_28381=T pbc="F F F"
N        0.13510000       1.36240000       0.17620000
C       -0.06060000      -0.00410000       0.04980000
C       -1.23060000      -0.67950000       0.03180000
C       -1.19820000      -2.11070000      -0.01930000
C       -0.01960000      -2.78840000      -0.05510000
N        0.12730000      -4.16760000      -0.17180000
C        1.22820000      -2.03760000      -0.01980000
N        2.36880000      -2.60790000      -0.01750000
O        1.12960000      -0.65680000       0.01470000
H        0.98830000       1.68420000      -0.26150000
H       -0.66330000       1.91430000      -0.10230000
H       -2.16870000      -0.14170000       0.05970000
H       -2.13560000      -2.65750000      -0.04070000
H       -0.60050000      -4.71340000       0.26530000
H        1.05980000      -4.46750000       0.08370000
H        3.12510000      -1.92680000       0.02200000
