16
Properties=species:S:1:pos:R:3 gdb_8352=T pbc="F F F"
O       -0.10470000       0.37170000      -1.00830000
C       -0.02100000       1.26040000      -0.19040000
N        1.12390000       1.66180000       0.43780000
C        2.41780000       1.08620000       0.22300000
C        2.78950000      -0.06400000      -0.72290000
N        4.14680000       0.29680000      -0.08210000
C        3.71250000       1.75470000      -0.29910000
C        3.35500000       0.38000000       1.23220000
H       -0.89390000       1.85750000       0.14240000
H        1.04780000       2.41900000       1.10050000
H        2.43650000      -1.06520000      -0.47320000
H        2.74540000       0.12280000      -1.79650000
H        3.74060000       2.06960000      -1.34500000
H        4.22960000       2.46480000       0.35250000
H        3.84550000       0.98720000       1.99840000
H        3.04810000      -0.59380000       1.62150000
