19
Properties=species:S:1:pos:R:3 gdb_31696=T pbc="F F F"
C        0.43210000       1.58610000      -0.19680000
C       -0.12710000       0.18340000       0.09780000
C        0.41240000      -0.41880000       1.34950000
C       -0.15150000      -0.79630000       2.52920000
C        0.90760000      -1.30950000       3.35570000
C        0.81150000      -1.85560000       4.74980000
O        1.93310000      -2.64650000       5.11130000
C        2.03650000      -1.20210000       2.60570000
O        1.75430000      -0.66640000       1.38450000
H        1.52150000       1.55710000      -0.28560000
H        0.02310000       1.97680000      -1.13340000
H        0.17830000       2.28450000       0.60640000
H       -1.21730000       0.22300000       0.18800000
H        0.09340000      -0.47800000      -0.75030000
H       -1.19820000      -0.72410000       2.78410000
H        0.78250000      -1.04170000       5.48460000
H       -0.13190000      -2.41340000       4.86660000
H        1.99610000      -3.35920000       4.46620000
H        3.06860000      -1.44600000       2.79100000
