11
Properties=species:S:1:pos:R:3 gdb_133462=T pbc="F F F"
F        0.25280000       0.10540000       0.06730000
C       -0.02150000       1.40300000       0.04940000
F        1.12520000       2.08320000      -0.08330000
F       -0.76920000       1.66970000      -1.02990000
C       -0.73830000       1.80480000       1.30810000
N       -1.07350000       1.05900000       2.30650000
C       -1.70210000       1.93630000       3.18080000
C       -1.70220000       3.17700000       2.63740000
O       -1.08090000       3.10590000       1.42420000
H       -2.10180000       1.60640000       4.12590000
H       -2.06290000       4.14600000       2.93570000
