20
Properties=species:S:1:pos:R:3 gdb_126426=T pbc="F F F"
C        0.01110000       1.37400000      -0.56940000
C       -0.13080000       0.16110000       0.36500000
C       -1.44140000      -0.55210000       0.21500000
N       -2.34740000      -0.50260000       1.18310000
N       -3.39970000      -1.22110000       0.69820000
C       -3.17150000      -1.72300000      -0.54350000
N       -4.09920000      -2.53480000      -1.18250000
C       -3.81050000      -2.90930000      -2.55880000
C       -1.90260000      -1.30350000      -0.89970000
H        0.98100000       1.86270000      -0.43130000
H       -0.06950000       1.07770000      -1.62030000
H       -0.77360000       2.11030000      -0.37030000
H        0.69140000      -0.53990000       0.17290000
H       -0.03950000       0.48240000       1.40700000
H       -4.18460000      -1.40590000       1.29820000
H       -5.05220000      -2.22050000      -1.05690000
H       -3.68900000      -2.04780000      -3.23330000
H       -2.88740000      -3.49580000      -2.58810000
H       -4.62180000      -3.53780000      -2.93290000
H       -1.38930000      -1.49650000      -1.82680000
