22
Properties=species:S:1:pos:R:3 gdb_93794=T pbc="F F F"
C       -0.04270000       1.56710000       0.01250000
C        0.01590000       0.03800000      -0.01850000
C        0.71820000      -0.50010000      -1.26680000
C        0.65840000      -2.02400000      -1.30310000
N        1.04640000      -2.64760000      -0.04240000
C        1.26850000      -4.08250000      -0.09710000
C        1.01660000      -2.03010000       1.18450000
O        1.23990000      -2.62990000       2.22380000
C        0.74100000      -0.52890000       1.20650000
H        0.96530000       1.99790000      -0.01210000
H       -0.59550000       1.96070000      -0.84700000
H       -0.53490000       1.92670000       0.92200000
H       -1.01500000      -0.34580000      -0.01890000
H        0.25980000      -0.10860000      -2.18160000
H        1.76490000      -0.16800000      -1.26440000
H       -0.36030000      -2.34840000      -1.57330000
H        1.32110000      -2.40820000      -2.08900000
H        2.08290000      -4.31640000      -0.79330000
H        1.52690000      -4.42610000       0.90300000
H        0.36630000      -4.60770000      -0.43920000
H        1.71710000      -0.03490000       1.31400000
H        0.19760000      -0.33080000       2.13410000
