27
Properties=species:S:1:pos:R:3 gdb_118227=T pbc="F F F"
C       -0.02570000       1.48260000       0.01110000
O        0.08610000       0.08480000      -0.08490000
C        0.61490000      -0.50880000       1.08250000
C        0.73970000      -2.01880000       0.86980000
C        1.70220000      -2.32280000      -0.28600000
C        1.15610000      -2.68800000       2.19250000
C        1.22970000      -4.22710000       2.19540000
C        1.77500000      -4.72510000       3.54150000
C       -0.12510000      -4.88040000       1.88880000
H        0.95300000       1.96250000       0.17390000
H       -0.44320000       1.84530000      -0.93160000
H       -0.69320000       1.78550000       0.83410000
H        1.60400000      -0.07410000       1.31680000
H       -0.04180000      -0.29780000       1.94430000
H       -0.26130000      -2.37090000       0.58960000
H        2.73090000      -2.05200000      -0.01670000
H        1.69690000      -3.38330000      -0.55360000
H        1.42240000      -1.74760000      -1.17150000
H        2.13980000      -2.29410000       2.48660000
H        0.45800000      -2.37710000       2.98370000
H        1.93940000      -4.53920000       1.41760000
H        1.10440000      -4.44720000       4.36380000
H        1.87420000      -5.81570000       3.55020000
H        2.75960000      -4.29670000       3.75750000
H       -0.50160000      -4.60600000       0.89910000
H       -0.04750000      -5.97230000       1.92080000
H       -0.87930000      -4.58090000       2.62700000
