18
Properties=species:S:1:pos:R:3 gdb_19484=T pbc="F F F"
O        0.29290000       0.66070000       1.02320000
C       -0.04280000       0.41190000      -0.33670000
C       -1.37520000      -0.30750000      -0.33760000
C       -1.98890000      -0.98020000      -1.59050000
C       -0.90560000      -1.95950000      -2.09420000
C       -0.54990000      -2.58880000      -0.70890000
C       -1.54660000      -1.77230000       0.13950000
O       -2.75570000      -1.83480000      -0.68600000
H        1.13260000       1.12890000       1.04530000
H       -0.13840000       1.35220000      -0.90450000
H        0.73620000      -0.18640000      -0.83080000
H       -2.13370000       0.31050000       0.14780000
H       -2.59560000      -0.44290000      -2.32000000
H       -1.33370000      -2.68510000      -2.78840000
H       -0.06360000      -1.46510000      -2.58670000
H       -0.77780000      -3.65520000      -0.66040000
H        0.49150000      -2.44360000      -0.40960000
H       -1.70270000      -2.04180000       1.18300000
