19
Properties=species:S:1:pos:R:3 gdb_111639=T pbc="F F F"
O       -0.10350000       1.31480000       0.56250000
C       -0.01070000       0.06450000      -0.11680000
C       -1.35390000      -0.60110000      -0.01590000
C       -1.59480000      -2.10110000      -0.06900000
C       -0.44570000      -3.07310000       0.19990000
C       -0.04440000      -2.76950000       1.63000000
C       -0.82120000      -1.83310000       2.17840000
C       -1.84960000      -1.33200000       1.21610000
O       -3.14640000      -1.09510000       1.67480000
H        0.74070000       1.76650000       0.46910000
H        0.24670000       0.21100000      -1.17830000
H        0.76800000      -0.56800000       0.32980000
H       -2.14710000      -0.03590000      -0.50110000
H       -2.43280000      -2.43310000      -0.66970000
H       -0.77160000      -4.11530000       0.08670000
H        0.39260000      -2.94020000      -0.49680000
H        0.79940000      -3.25050000       2.11220000
H       -0.74020000      -1.44520000       3.18730000
H       -3.20050000      -0.16900000       1.93390000
