14
Properties=species:S:1:pos:R:3 gdb_127780=T pbc="F F F"
C        0.01830000       1.41770000       0.01780000
N       -0.00250000      -0.02500000       0.07480000
N       -0.09090000      -0.77200000      -1.08230000
N       -0.09480000      -2.03490000      -0.81300000
C       -0.00740000      -2.16120000       0.55420000
C        0.04900000      -3.02670000       1.63950000
N        0.13360000      -2.20580000       2.71810000
N        0.13930000      -0.86560000       2.45660000
C        0.05200000      -0.87830000       1.12900000
H        0.94560000       1.80860000       0.44760000
H       -0.04560000       1.70250000      -1.03260000
H       -0.83110000       1.83890000       0.56400000
H        0.03770000      -4.09880000       1.74380000
H        0.19160000      -2.49320000       3.68160000
