23
Properties=species:S:1:pos:R:3 gdb_68584=T pbc="F F F"
C       -0.10950000       1.51880000       0.02080000
C       -0.03510000      -0.01500000       0.00570000
C       -1.46540000      -0.54020000      -0.15110000
C        1.11450000      -0.61130000      -0.89020000
C        2.10670000      -0.24810000       0.25200000
C        0.86950000      -0.61840000       1.13430000
O        0.67490000      -0.14930000       2.43360000
C        0.79020000      -2.14120000       0.88420000
C        0.98030000      -2.13550000      -0.66860000
H        0.85920000       2.01590000       0.07560000
H       -0.61280000       1.87780000      -0.88380000
H       -0.69680000       1.85450000       0.88180000
H       -1.91910000      -0.14050000      -1.06500000
H       -1.53860000      -1.62760000      -0.19970000
H       -2.08170000      -0.20610000       0.69090000
H        1.26780000      -0.26270000      -1.91170000
H        2.99950000      -0.87370000       0.35030000
H        2.38550000       0.80130000       0.30250000
H        1.22000000      -0.66970000       3.03330000
H        1.59550000      -2.67120000       1.40500000
H       -0.15870000      -2.57270000       1.21150000
H        0.13650000      -2.57750000      -1.20360000
H        1.88400000      -2.66710000      -0.97970000
