17
Properties=species:S:1:pos:R:3 gdb_20579=T pbc="F F F"
C        0.00520000       1.50520000       0.12850000
C        0.00840000       0.02220000      -0.04990000
C       -0.01200000      -0.76620000      -1.18830000
C       -0.08110000      -0.34780000      -2.62300000
C        0.02550000      -2.09700000      -0.68900000
N       -0.05570000      -3.26700000      -1.45130000
N        0.06960000      -2.14110000       0.63710000
N        0.05100000      -0.83260000       1.00250000
H        1.01960000       1.91330000       0.21620000
H       -0.47080000       1.99530000      -0.72470000
H       -0.54720000       1.79730000       1.02800000
H        0.88050000      -0.45900000      -3.14270000
H       -0.81370000      -0.95000000      -3.17260000
H       -0.37490000       0.70160000      -2.72240000
H        0.56000000      -3.25850000      -2.25460000
H        0.13210000      -4.08340000      -0.88220000
H        0.05830000      -0.60130000       1.98010000
