20
Properties=species:S:1:pos:R:3 gdb_12195=T pbc="F F F"
C       -0.05690000       1.58390000      -0.10550000
C        0.07210000       0.07250000       0.00790000
C        1.09170000      -0.66780000      -0.89690000
C        1.37640000      -1.64660000       0.28480000
C        2.72880000      -2.11650000       0.49960000
C        3.85900000      -2.48910000       0.67850000
C        0.75650000      -0.57500000       1.26010000
C        1.78080000       0.29080000       1.98480000
H        0.90890000       2.08270000       0.02270000
H       -0.44650000       1.86570000      -1.09020000
H       -0.74350000       1.98600000       0.64790000
H       -0.91640000      -0.38370000      -0.12090000
H        0.73270000      -1.10710000      -1.83040000
H        1.96780000      -0.05050000      -1.11380000
H        0.69850000      -2.50450000       0.21890000
H        4.85450000      -2.82430000       0.83310000
H        0.06070000      -0.99780000       1.99120000
H        2.51810000       0.72160000       1.30010000
H        1.29000000       1.11480000       2.51300000
H        2.33240000      -0.30330000       2.71950000
