16
Properties=species:S:1:pos:R:3 gdb_100627=T pbc="F F F"
N       -0.01460000       0.95550000       0.15220000
H       -0.21780000       0.05800000       0.70100000
H        0.93090000       1.30470000       0.30000000
H       -0.15430000       0.78140000      -0.84260000
C       -1.09170000       1.84070000       0.75900000
C       -2.22620000       0.91770000       1.25450000
O       -1.55190000      -0.41340000       1.48050000
C       -2.90620000       1.48140000       2.42730000
C       -4.29320000       1.30230000       2.57590000
N       -5.44390000       1.14250000       2.65860000
C       -2.12900000       2.13780000       3.39690000
N       -1.39510000       2.66930000       4.13380000
H       -0.63010000       2.35190000       1.60560000
H       -1.43100000       2.56840000       0.02320000
H       -2.93710000       0.71700000       0.44980000
H       -1.61810000      -0.56700000       2.43200000
