16
Properties=species:S:1:pos:R:3 gdb_79661=T pbc="F F F"
C       -0.18760000       1.54490000      -0.02820000
N        0.17680000       0.12780000       0.06230000
C        1.39410000      -0.51710000      -0.30050000
C        2.69870000       0.19030000       0.23170000
O        2.32730000       1.40260000       0.90040000
C        2.19650000       0.16580000       1.59680000
C        0.85660000      -0.55630000       1.12740000
C        0.25390000      -1.60090000       1.88330000
C       -0.21490000      -2.47210000       2.56860000
H        0.47510000       2.08320000      -0.70870000
H       -1.21410000       1.61060000      -0.40640000
H       -0.14020000       2.03350000       0.94690000
H        1.39960000      -1.30910000      -1.04210000
H        3.70290000       0.10630000      -0.16330000
H        2.69230000       0.04220000       2.55140000
H       -0.64260000      -3.24470000       3.15810000
