20
Properties=species:S:1:pos:R:3 gdb_9759=T pbc="F F F"
C        0.07940000       1.19940000       0.35910000
O       -0.14160000      -0.15540000       0.04290000
C       -1.50900000      -0.56160000      -0.17740000
C       -2.00470000      -0.02750000      -1.52490000
C       -1.48690000      -2.10860000      -0.10420000
C       -1.89480000      -2.47660000       1.34190000
C       -2.59190000      -1.22660000       1.82000000
C       -2.40330000      -0.19670000       0.99770000
H        1.16060000       1.32170000       0.46720000
H       -0.26440000       1.88610000      -0.42860000
H       -0.39830000       1.49170000       1.30510000
H       -1.34940000      -0.37110000      -2.33130000
H       -3.02100000      -0.37940000      -1.72580000
H       -2.02520000       1.06650000      -1.54570000
H       -2.21920000      -2.51560000      -0.80790000
H       -0.50120000      -2.48130000      -0.38930000
H       -2.54110000      -3.36050000       1.38250000
H       -1.02550000      -2.70060000       1.97400000
H       -3.16190000      -1.19160000       2.74300000
H       -2.80260000       0.80140000       1.14030000
