19
Properties=species:S:1:pos:R:3 gdb_40686=T pbc="F F F"
C        0.15970000       1.43600000       0.02420000
O        1.31570000       0.59840000      -0.01800000
C        0.02880000      -0.02680000       0.02420000
C       -0.27860000      -0.77890000       1.27550000
O       -1.57240000      -1.40600000       1.32320000
C       -0.42570000      -2.23870000       1.29770000
C       -0.09290000      -3.26630000       0.21110000
C        0.66630000      -4.07560000       1.30680000
C       -0.02650000      -3.21460000       2.40650000
H        0.01510000       1.98720000       0.95260000
H       -0.04930000       1.99370000      -0.88730000
H       -0.27610000      -0.51950000      -0.89880000
H        0.02310000      -0.27320000       2.19470000
H       -0.99420000      -3.77850000      -0.13820000
H        0.47910000      -2.92590000      -0.65510000
H        0.47900000      -5.14980000       1.33740000
H        1.74450000      -3.90720000       1.26870000
H        0.59180000      -2.83000000       3.22100000
H       -0.90530000      -3.70890000       2.83110000
