20
Properties=species:S:1:pos:R:3 gdb_92181=T pbc="F F F"
C       -0.01480000       1.54800000      -0.02690000
C        0.04070000       0.01940000       0.03530000
O        0.64640000      -0.56500000      -1.13480000
C        1.95190000      -1.06300000      -0.88840000
C        2.78670000      -0.04300000      -0.08960000
N        2.25120000      -0.63210000       1.18600000
C        2.01040000      -1.93160000       0.41930000
C        0.67100000      -2.11940000       1.12410000
C        0.71740000      -0.57840000       1.27360000
H        0.94520000       2.02870000       0.16940000
H       -0.36200000       1.86190000      -1.01530000
H       -0.72880000       1.91570000       0.71830000
H       -0.99880000      -0.33740000       0.02840000
H        2.31340000      -1.47320000      -1.83450000
H        3.86060000      -0.25520000      -0.12190000
H        2.62990000       1.01970000      -0.27750000
H        2.79350000      -2.69370000       0.45500000
H       -0.16300000      -2.54420000       0.56160000
H        0.79480000      -2.64240000       2.07430000
H        0.35320000      -0.12200000       2.19710000
