19
Properties=species:S:1:pos:R:3 gdb_125921=T pbc="F F F"
C       -0.81560000       1.19260000       0.03090000
C        0.19700000       0.05040000       0.01190000
C        1.13530000       0.05200000      -1.24520000
C        2.37450000      -0.60360000      -0.71470000
C        3.56540000      -1.19190000      -1.06940000
N        4.17500000      -1.51720000       0.10880000
N        3.45770000      -1.18200000       1.20970000
C        2.37100000      -0.62750000       0.69370000
C        1.13710000       0.00670000       1.26160000
H       -0.30920000       2.16480000       0.05180000
H       -1.45790000       1.17050000      -0.85620000
H       -1.46410000       1.13620000       0.91170000
H       -0.34860000      -0.90130000      -0.00590000
H        0.67120000      -0.46260000      -2.09280000
H        1.33420000       1.08250000      -1.57240000
H        4.03140000      -1.41210000      -2.01710000
H        5.05300000      -1.99200000       0.23020000
H        1.34760000       1.02230000       1.62450000
H        0.69250000      -0.54440000       2.09540000
