22
Properties=species:S:1:pos:R:3 gdb_86880=T pbc="F F F"
C        0.26000000       1.66840000      -0.09370000
C        0.09940000       0.14360000      -0.01910000
C        0.68000000      -0.56670000      -1.25640000
C        2.20920000      -0.66930000      -0.96640000
C        2.33700000      -0.63080000       0.59460000
C        0.89020000      -0.52880000       1.13200000
C        0.78500000       0.12840000       2.50730000
C        2.81750000      -1.85050000      -1.57010000
N        3.29200000      -2.79300000      -2.04330000
H        1.31050000       1.97280000      -0.16380000
H       -0.25520000       2.06420000      -0.97480000
H       -0.16530000       2.16020000       0.78570000
H       -0.96860000      -0.08260000       0.07650000
H        0.25920000      -1.57310000      -1.34060000
H        0.47830000      -0.04650000      -2.19630000
H        2.71800000       0.20100000      -1.39250000
H        2.85760000      -1.50870000       0.98240000
H        2.92390000       0.24380000       0.89140000
H        0.49810000      -1.55120000       1.21660000
H        1.20170000       1.14090000       2.50410000
H       -0.25730000       0.19470000       2.83710000
H        1.33260000      -0.45000000       3.25870000
