12
Properties=species:S:1:pos:R:3 gdb_53723=T pbc="F F F"
N        0.29430000       1.12200000       0.43640000
C       -0.19670000       0.27710000      -0.51030000
O        0.27890000       0.13390000      -1.61800000
C       -1.38490000      -0.46060000      -0.08910000
C       -2.36440000      -1.10880000       0.19320000
C       -3.52420000      -1.89940000       0.54940000
O       -3.45640000      -2.85410000       1.29670000
C       -4.76180000      -1.45520000      -0.05460000
C       -5.79210000      -1.08800000      -0.55650000
H        1.14210000       1.62520000       0.22980000
H       -0.07920000       1.14470000       1.36960000
H       -6.70550000      -0.76980000      -0.99830000
