16
Properties=species:S:1:pos:R:3 gdb_16357=T pbc="F F F"
C       -0.30170000       1.48890000       0.03630000
C        0.12450000       0.03870000       0.00290000
O        1.38560000      -0.15500000      -0.73000000
C        2.00210000      -0.74870000       0.36090000
N        3.15480000      -1.21690000       0.50080000
C        0.79960000      -0.57700000       1.23520000
C        0.69740000      -0.20500000       2.66400000
N        0.29310000      -1.54250000       2.20000000
H        0.47970000       2.11360000       0.47740000
H       -0.50940000       1.85040000      -0.97520000
H       -1.21650000       1.60200000       0.62830000
H       -0.64800000      -0.60160000      -0.43860000
H        3.69860000      -1.14020000      -0.35990000
H        1.59790000      -0.18820000       3.27020000
H       -0.06830000       0.51370000       2.94600000
H       -0.72070000      -1.60270000       2.12760000
