15
Properties=species:S:1:pos:R:3 gdb_23307=T pbc="F F F"
N        0.09000000       1.35940000       0.12840000
C       -0.03200000      -0.00140000       0.03610000
C       -1.15350000      -0.76400000      -0.03770000
C       -0.79200000      -2.17280000      -0.01240000
N       -1.49860000      -3.24200000       0.01110000
O       -2.87130000      -2.94010000      -0.01400000
C        0.70530000      -2.26130000       0.00960000
O        1.34400000      -1.65790000      -1.13350000
C        1.19140000      -0.87720000       0.06440000
H        0.94580000       1.76690000      -0.21620000
H       -0.73060000       1.90940000      -0.07680000
H       -2.16740000      -0.40840000      -0.14620000
H       -3.27110000      -3.81550000       0.01390000
H        1.21460000      -3.11420000       0.44350000
H        2.10780000      -0.56080000       0.55500000
