12
Properties=species:S:1:pos:R:3 gdb_129232=T pbc="F F F"
N       -0.07400000       1.35710000       0.01120000
C       -0.03990000       0.08590000       0.00380000
N        1.11770000      -0.71970000      -0.00800000
N        1.21280000      -2.05640000      -0.01620000
N        0.14980000      -2.75580000      -0.01330000
C       -1.07340000      -2.11120000      -0.00190000
C       -1.23030000      -0.76120000       0.00660000
C       -2.52250000      -0.16280000       0.01820000
N       -3.59080000       0.28170000       0.02750000
H        0.85360000       1.78150000       0.00770000
H        2.02330000      -0.26870000      -0.01130000
H       -1.92830000      -2.77660000      -0.00030000
