21
Properties=species:S:1:pos:R:3 gdb_72500=T pbc="F F F"
O       -0.05230000       1.39420000      -0.03480000
C        0.02770000      -0.01920000       0.01610000
C        0.64510000      -0.56620000       1.33480000
C       -0.05370000      -1.93630000       1.56560000
C       -1.03370000      -2.08420000       0.37390000
C       -1.38000000      -0.62740000       0.04070000
O       -0.43600000      -2.70850000      -0.76380000
C        0.79770000      -2.12800000      -1.15760000
C        0.74900000      -0.59190000      -1.21870000
H        0.84340000       1.74210000      -0.10460000
H        1.73550000      -0.65160000       1.27660000
H        0.41310000       0.14220000       2.13470000
H        0.63830000      -2.78100000       1.61210000
H       -0.61900000      -1.93370000       2.50170000
H       -1.90020000      -2.70460000       0.61100000
H       -1.97630000      -0.16760000       0.83630000
H       -1.91170000      -0.52590000      -0.90810000
H        1.60090000      -2.44080000      -0.47200000
H        1.03070000      -2.55190000      -2.13860000
H        0.21580000      -0.25590000      -2.11440000
H        1.77600000      -0.20610000      -1.27890000
