21
Properties=species:S:1:pos:R:3 gdb_83021=T pbc="F F F"
C        0.02440000       1.45440000       0.02310000
C        0.02230000      -0.04400000       0.00050000
C        0.08780000      -0.83240000      -1.08240000
C        0.04360000      -2.30550000      -0.73920000
C        0.03840000      -2.31760000       0.78840000
C        1.23030000      -1.70100000       1.47360000
O        2.44260000      -1.47260000       0.82540000
C       -0.01640000      -0.85460000       1.26610000
C       -0.83300000      -0.38360000       2.44720000
H        0.87200000       1.84280000       0.60130000
H        0.07920000       1.86920000      -0.98670000
H       -0.88220000       1.84550000       0.50050000
H        0.17200000      -0.47200000      -2.10270000
H       -0.84860000      -2.79030000      -1.15530000
H        0.90940000      -2.84740000      -1.14430000
H       -0.51450000      -3.09290000       1.30820000
H        1.41840000      -2.01690000       2.49560000
H        2.25020000      -0.96510000       0.02540000
H       -0.47130000       0.57710000       2.83160000
H       -1.89050000      -0.26190000       2.18360000
H       -0.77930000      -1.10450000       3.26890000
