20
Properties=species:S:1:pos:R:3 gdb_71763=T pbc="F F F"
C       -0.07550000       1.47690000       0.02780000
C       -0.01480000      -0.03010000      -0.03190000
C        0.27310000      -0.70320000      -1.37190000
C        0.74230000      -2.10470000      -1.01680000
C        1.10230000      -2.15570000       0.43320000
C        0.63610000      -0.86180000       1.06590000
C       -0.87420000      -0.84890000       0.90340000
C       -1.29050000      -2.22040000       0.39520000
N       -0.07120000      -2.89820000      -0.07900000
H        0.85580000       1.92820000      -0.33390000
H       -0.89440000       1.86700000      -0.58850000
H       -0.24000000       1.82560000       1.05250000
H       -0.60310000      -0.70990000      -2.03350000
H        1.07210000      -0.17140000      -1.90370000
H        1.25170000      -2.69260000      -1.77580000
H        1.92530000      -2.72620000       0.84810000
H        1.14580000      -0.42450000       1.91450000
H       -1.50640000      -0.32510000       1.61410000
H       -1.72500000      -2.82050000       1.20260000
H       -2.02630000      -2.17680000      -0.41660000
