17
Properties=species:S:1:pos:R:3 gdb_37340=T pbc="F F F"
N       -0.03060000       1.48500000       0.03050000
C        1.28570000       0.80440000      -0.00660000
C        0.03640000       0.00460000       0.00140000
C        0.04920000      -0.64880000      -1.40890000
O        1.45930000      -0.85840000      -1.60030000
C        1.86090000       0.51120000      -1.42050000
C        0.98990000       1.23810000      -2.45230000
N        0.64740000       0.38970000      -3.61620000
C       -0.25580000       0.44050000      -2.44430000
H       -0.21540000       1.78330000       0.98730000
H        1.94830000       0.86710000       0.84890000
H       -0.29010000      -0.56600000       0.86320000
H       -0.47690000      -1.59870000      -1.49270000
H        2.94300000       0.59080000      -1.51460000
H        0.98350000       2.31820000      -2.51780000
H        0.25230000       0.99970000      -4.33000000
H       -1.23480000       0.89800000      -2.50360000
