16
Properties=species:S:1:pos:R:3 gdb_3474=T pbc="F F F"
C       -0.11030000       1.52760000      -0.04720000
C        0.07810000       0.05190000       0.03070000
C        0.66350000      -0.97250000      -0.86820000
C        1.40970000      -1.65360000       0.27480000
C        0.36380000      -0.98200000       1.20410000
C       -0.94490000      -1.64550000       0.75330000
N       -0.82280000      -0.97030000      -0.57990000
H        0.80700000       2.06120000       0.22530000
H       -0.38360000       1.81410000      -1.06760000
H       -0.90850000       1.86640000       0.62290000
H        0.93770000      -0.89410000      -1.91250000
H        1.47650000      -2.74720000       0.29530000
H        2.40590000      -1.22020000       0.39750000
H        0.59250000      -0.76800000       2.24690000
H       -0.98820000      -2.74130000       0.72560000
H       -1.83390000      -1.25440000       1.25520000
