21
Properties=species:S:1:pos:R:3 gdb_23012=T pbc="F F F"
C        0.20960000       1.75540000       0.71660000
C        0.21310000       0.32180000       0.15230000
C        0.56030000      -0.70370000       1.20330000
N       -0.25780000      -1.19320000       2.05560000
O       -1.55240000      -0.66470000       1.90480000
C        1.95810000      -1.23670000       1.25440000
N        3.03880000      -0.23730000       1.36950000
C        2.82830000      -1.20790000       2.46010000
C        2.39980000      -0.65940000       3.79780000
H        1.19380000       2.01010000       1.11730000
H       -0.04230000       2.47420000      -0.06940000
H       -0.53030000       1.84790000       1.51540000
H       -0.77460000       0.08720000      -0.25570000
H        0.94270000       0.25200000      -0.66070000
H       -2.04010000      -1.13330000       2.58990000
H        2.12930000      -2.06100000       0.56070000
H        3.83080000      -0.50400000       0.79160000
H        3.54540000      -2.02630000       2.52060000
H        1.72940000       0.19220000       3.67310000
H        1.87570000      -1.42500000       4.37830000
H        3.27380000      -0.32900000       4.36940000
