18
Properties=species:S:1:pos:R:3 gdb_34859=T pbc="F F F"
N       -0.03560000      -1.13380000      -0.06170000
C       -0.01920000       0.02200000      -0.02110000
C        0.00400000       1.47410000       0.03280000
C       -0.10930000       2.07070000       1.47700000
C        1.43460000       1.93190000       1.59070000
C        1.44060000       2.09910000       0.04550000
C        1.30150000       3.58960000      -0.28960000
O        0.58900000       4.28880000       0.72200000
C       -0.46170000       3.55730000       1.33900000
H       -0.69210000       1.87310000      -0.71300000
H       -0.75930000       1.56210000       2.19020000
H        1.96630000       2.67960000       2.18120000
H        1.73250000       0.92680000       1.89330000
H        2.21280000       1.61660000      -0.55500000
H        2.28680000       4.06480000      -0.34040000
H        0.81670000       3.71170000      -1.27240000
H       -1.40540000       3.67100000       0.78000000
H       -0.59960000       4.01190000       2.32560000
