18
Properties=species:S:1:pos:R:3 gdb_40984=T pbc="F F F"
C       -0.04860000       1.56320000       0.13010000
C        1.52750000       1.52330000      -0.13500000
C        1.22750000       0.14290000      -0.77810000
C       -0.04150000      -0.00650000      -0.02100000
N       -0.31150000      -0.98070000      -1.21840000
C        0.39150000       0.06820000      -2.12160000
C        1.14850000      -0.73520000      -3.14560000
C        1.66730000      -1.73900000      -2.43330000
C        1.19920000      -1.43520000      -1.03470000
H       -0.35660000       1.92610000       1.11290000
H       -0.59180000       2.12080000      -0.63350000
H        1.96900000       2.30430000      -0.76010000
H        2.07910000       1.45450000       0.80680000
H       -0.04660000      -0.53190000       0.93640000
H       -0.23420000       0.89640000      -2.45160000
H        1.21640000      -0.52470000      -4.20340000
H        2.27720000      -2.57600000      -2.74140000
H        1.38000000      -2.12340000      -0.20920000
