19
Properties=species:S:1:pos:R:3 gdb_58851=T pbc="F F F"
C       -0.08490000       1.57110000       0.26120000
C        0.04150000       0.05540000       0.02140000
C        0.84340000      -0.63740000       1.13040000
C       -1.32530000      -0.54320000      -0.14240000
O       -2.16300000      -0.75530000       1.02640000
C       -1.95180000      -1.86220000       0.15420000
C       -3.00970000      -1.73420000      -0.94960000
C       -2.33650000      -0.36560000      -1.28040000
O       -2.44840000       0.42030000      -2.17380000
H        0.90510000       2.03340000       0.31720000
H       -0.64360000       2.04910000      -0.54810000
H       -0.60760000       1.76910000       1.20260000
H        0.55960000      -0.09340000      -0.93610000
H        0.99110000      -1.70060000       0.91570000
H        1.82990000      -0.17550000       1.23020000
H        0.32560000      -0.55270000       2.09000000
H       -1.48770000      -2.75210000       0.56060000
H       -2.89980000      -2.42800000      -1.78880000
H       -4.04610000      -1.71840000      -0.60730000
