17
Properties=species:S:1:pos:R:3 gdb_18069=T pbc="F F F"
O        1.70360000      -0.47250000      -0.41140000
C        1.01080000       0.50530000      -0.52670000
C        1.38090000       1.88090000      -0.00750000
C        1.43900000       2.89220000      -1.14190000
C        2.41160000       3.99980000      -1.25540000
C        3.79280000       3.63710000      -0.71500000
C        3.74310000       2.41740000      -1.66880000
N        2.41540000       2.84400000      -2.25230000
H        0.03040000       0.45470000      -1.05390000
H        0.59880000       2.20590000       0.69250000
H        2.31660000       1.79920000       0.54730000
H        0.45580000       3.12870000      -1.54590000
H        2.10090000       4.99930000      -1.54580000
H        4.55740000       4.36080000      -1.00200000
H        3.87340000       3.45760000       0.36160000
H        4.50050000       2.44740000      -2.45360000
H        3.73650000       1.41780000      -1.22580000
