16
Properties=species:S:1:pos:R:3 gdb_108800=T pbc="F F F"
C       -0.03240000       1.53230000      -0.06230000
C        0.03520000       0.00300000      -0.09770000
N        0.83760000      -0.51650000      -1.20600000
C        1.74620000      -1.23140000      -0.68190000
C        2.80250000      -1.96220000      -1.44720000
O        2.67650000      -1.74840000      -2.82590000
O        1.77090000      -1.35130000       0.68540000
C        0.69900000      -0.57950000       1.15220000
O        0.45220000      -0.46240000       2.30820000
H        0.97120000       1.96390000      -0.01810000
H       -0.52840000       1.90190000      -0.96220000
H       -0.59300000       1.85710000       0.81780000
H       -0.98270000      -0.40140000      -0.16420000
H        3.78690000      -1.62930000      -1.08290000
H        2.72770000      -3.03330000      -1.20160000
H        1.90590000      -1.17630000      -2.94980000
