19
Properties=species:S:1:pos:R:3 gdb_81043=T pbc="F F F"
O       -0.19720000       1.37820000      -0.03830000
C       -0.03010000      -0.02850000       0.01070000
C        0.13010000      -0.62410000       1.43540000
C       -1.41200000      -0.49020000       1.59820000
C       -1.44070000      -0.66360000       0.04540000
O       -2.44080000      -0.10520000      -0.74840000
C       -1.31180000      -2.15930000      -0.27670000
O       -0.59430000      -2.84800000       0.73650000
C        0.48640000      -2.11260000       1.29460000
H        0.65120000       1.79990000       0.12770000
H        0.66900000      -0.37150000      -0.76600000
H        0.79370000      -0.10680000       2.13280000
H       -1.93240000      -1.23270000       2.20470000
H       -1.70030000       0.52100000       1.88540000
H       -2.27220000       0.84530000      -0.76960000
H       -2.30840000      -2.60940000      -0.31730000
H       -0.83690000      -2.28530000      -1.26290000
H        1.39800000      -2.22850000       0.68340000
H        0.67960000      -2.56480000       2.27280000
