16
Properties=species:S:1:pos:R:3 gdb_126483=T pbc="F F F"
C        0.09830000       1.53270000      -0.04760000
C       -0.04360000       0.01190000      -0.06440000
C       -1.45010000      -0.51120000       0.03200000
N       -2.39860000       0.35200000       0.12100000
O       -3.71440000      -0.16240000       0.21090000
C       -3.89180000      -1.48960000       0.19840000
N       -3.00770000      -2.40290000       0.11320000
C       -1.67550000      -1.97560000       0.02020000
N       -0.67640000      -2.76310000      -0.07120000
H        1.15440000       1.80520000      -0.12240000
H       -0.43590000       1.99370000      -0.88250000
H       -0.30340000       1.96210000       0.87380000
H        0.39420000      -0.42060000      -0.97230000
H        0.52380000      -0.45140000       0.75210000
H       -4.95210000      -1.72300000       0.27450000
H       -1.01270000      -3.72920000      -0.06470000
