19
Properties=species:S:1:pos:R:3 gdb_126726=T pbc="F F F"
C        0.38250000       1.45450000       0.22650000
C       -0.19820000       0.11140000      -0.21910000
N        0.57340000      -0.51270000      -1.28180000
C        1.78880000      -1.12940000      -1.20800000
C        2.06220000      -1.47380000      -2.51760000
N        3.16900000      -2.08690000      -3.07320000
C        4.01050000      -2.90170000      -2.21860000
N        1.02200000      -1.06620000      -3.29750000
N        0.12790000      -0.48210000      -2.54060000
H        1.39430000       1.33780000       0.62550000
H        0.42270000       2.15160000      -0.61460000
H       -0.24450000       1.89010000       1.01010000
H       -0.25490000      -0.58720000       0.62240000
H       -1.20500000       0.23690000      -0.62230000
H        2.31690000      -1.26310000      -0.28080000
H        2.95430000      -2.49280000      -3.97280000
H        4.79700000      -3.36020000      -2.82210000
H        4.49970000      -2.27250000      -1.46610000
H        3.46350000      -3.69870000      -1.68910000
