18
Properties=species:S:1:pos:R:3 gdb_78834=T pbc="F F F"
C       -0.03520000       1.64750000      -0.07080000
C        0.13230000       0.13480000      -0.13340000
C        0.90330000      -0.56740000      -1.24030000
C        2.32980000      -0.75960000      -0.83250000
C        2.53900000      -0.20240000       0.55810000
C        3.02720000       1.19790000       0.81090000
O        3.50070000       1.91810000      -0.03260000
C        1.07430000      -0.66740000       0.79760000
N        1.27200000      -1.71830000      -0.34560000
H        0.89900000       2.18180000      -0.25200000
H       -0.75320000       1.97760000      -0.82920000
H       -0.42710000       1.95710000       0.90450000
H       -0.84950000      -0.34860000      -0.06750000
H        0.58790000      -0.73960000      -2.26370000
H        3.08840000      -1.07540000      -1.53810000
H        3.18550000      -0.88020000       1.13440000
H        2.95190000       1.53100000       1.87320000
H        0.75230000      -0.99830000       1.78300000
