17
Properties=species:S:1:pos:R:3 gdb_6181=T pbc="F F F"
C       -0.00400000       1.53450000      -0.02370000
C       -0.00660000       0.00180000       0.03290000
C       -1.42940000      -0.56380000      -0.05820000
O        0.74820000      -0.49240000      -1.09630000
C        1.81960000      -1.22700000      -0.67840000
N        2.60400000      -1.74610000      -1.52920000
C        1.80250000      -1.23990000       0.79840000
C        0.75530000      -0.53530000       1.22010000
H        1.01910000       1.91720000       0.00510000
H       -0.47720000       1.87350000      -0.94940000
H       -0.55850000       1.95210000       0.82240000
H       -1.90470000      -0.22810000      -0.98400000
H       -1.40840000      -1.65630000      -0.05350000
H       -2.03490000      -0.22110000       0.78660000
H        3.34350000      -2.25650000      -1.04980000
H        2.54550000      -1.75450000       1.39200000
H        0.45090000      -0.34540000       2.24170000
