19
Properties=species:S:1:pos:R:3 gdb_13483=T pbc="F F F"
C        0.01950000       1.60870000       0.13620000
C        0.01610000       0.07800000       0.02510000
C        0.77950000      -0.57010000       1.18930000
C       -1.41180000      -0.47010000      -0.04600000
C       -2.25750000      -0.17870000      -1.32610000
N       -2.33650000      -1.62810000      -1.52380000
C       -1.55820000      -1.96490000      -0.44430000
O       -1.15370000      -3.01820000      -0.02540000
H        1.04390000       1.99490000       0.15720000
H       -0.49750000       2.08150000      -0.70560000
H       -0.47640000       1.93360000       1.05860000
H        0.52300000      -0.19830000      -0.91110000
H        0.33520000      -0.28370000       2.15040000
H        0.75120000      -1.66000000       1.11820000
H        1.82450000      -0.24380000       1.19750000
H       -1.95430000      -0.24320000       0.87820000
H       -3.22420000       0.30670000      -1.16060000
H       -1.71340000       0.34900000      -2.11720000
H       -2.72360000      -2.18910000      -2.26810000
