17
Properties=species:S:1:pos:R:3 gdb_125699=T pbc="F F F"
C        0.21160000       1.48970000      -0.12350000
C        0.00260000       0.01810000       0.03650000
N       -0.45820000      -0.69260000      -0.96570000
O       -0.53520000      -2.00780000      -0.49200000
C       -0.11470000      -2.04440000       0.78750000
C        0.24470000      -0.79410000       1.18410000
C       -0.11510000      -3.34980000       1.46010000
C       -1.18300000      -4.34890000       1.15740000
N        0.18770000      -4.57760000       0.69510000
H        1.25960000       1.75590000       0.04810000
H       -0.06820000       1.80120000      -1.13140000
H       -0.39180000       2.05050000       0.59760000
H        0.62620000      -0.49080000       2.14500000
H        0.31550000      -3.32740000       2.45650000
H       -1.52110000      -5.01360000       1.94720000
H       -1.93920000      -4.06250000       0.43280000
H        0.25610000      -4.33880000      -0.29220000
