20
Properties=species:S:1:pos:R:3 gdb_36090=T pbc="F F F"
N       -0.07360000      -1.14220000      -0.18430000
C       -0.05440000       0.00570000      -0.05100000
C       -0.00160000       1.45930000       0.11180000
C        1.41840000       2.00720000       0.03640000
C        2.26710000       1.95650000      -1.26970000
C        3.05670000       3.09280000      -0.55780000
C        1.68500000       3.54230000       0.02290000
C        3.68330000       2.34770000       0.63730000
C        2.43660000       1.52000000       1.09180000
H       -0.62900000       1.91590000      -0.66250000
H       -0.45480000       1.71510000       1.07790000
H        2.79090000       1.02610000      -1.50600000
H        1.71240000       2.31060000      -2.14260000
H        3.69320000       3.78100000      -1.11330000
H        1.06780000       4.06770000      -0.71050000
H        1.67380000       4.07510000       0.97900000
H        4.52190000       1.71310000       0.33770000
H        4.03940000       3.03120000       1.41320000
H        2.11650000       1.76030000       2.11070000
H        2.59700000       0.43990000       1.03650000
