15
Properties=species:S:1:pos:R:3 gdb_131144=T pbc="F F F"
O        0.06610000       1.37310000       0.21820000
C       -0.01440000      -0.01690000       0.05310000
C       -0.69460000      -0.83830000       1.12540000
C       -1.40080000      -0.55890000      -0.17830000
C        1.12740000      -0.58350000      -0.69210000
C        2.14900000       0.03920000      -1.33680000
O        2.94910000      -0.88570000      -1.87170000
N        2.38350000      -2.14480000      -1.53960000
N        1.34250000      -1.93560000      -0.86230000
H        0.68150000       1.55010000       0.93920000
H       -0.32140000      -1.83970000       1.30520000
H       -1.02810000      -0.29420000       2.00210000
H       -2.19720000       0.17580000      -0.17490000
H       -1.51080000      -1.37070000      -0.88770000
H        2.40600000       1.07280000      -1.49010000
