17
Properties=species:S:1:pos:R:3 gdb_65387=T pbc="F F F"
O       -0.05470000       1.41920000      -0.17080000
C        0.00110000       0.05400000       0.05990000
C       -0.20540000      -0.44360000       1.47380000
C       -1.28610000      -0.68390000       0.45670000
C       -2.55370000       0.10110000       0.49820000
C       -3.70500000      -0.25030000      -0.34140000
O       -3.68970000      -0.57280000       1.05090000
C        0.93310000      -0.66270000      -0.83260000
O        1.54100000      -0.08630000      -1.70730000
H        0.50080000       1.55990000      -0.95470000
H        0.38020000      -1.28550000       1.82740000
H       -0.36870000       0.34320000       2.20220000
H       -1.40100000      -1.70130000       0.09250000
H       -2.44490000       1.13820000       0.80970000
H       -4.41320000       0.52180000      -0.63810000
H       -3.63710000      -1.10110000      -1.01860000
H        1.03200000      -1.75430000      -0.66410000
