18
Properties=species:S:1:pos:R:3 gdb_14365=T pbc="F F F"
C        0.03220000       1.66400000       0.14270000
C        1.51610000       1.23640000       0.07580000
C        1.12970000       0.01350000       1.00460000
C        0.05270000       0.11640000      -0.10850000
O       -0.98770000      -0.63820000      -0.62610000
C       -0.88870000      -0.47750000      -2.06970000
C        0.32770000       0.46910000      -2.40220000
C        1.16470000       0.29010000      -1.13350000
H       -0.33500000       1.99480000       1.11700000
H       -0.34240000       2.30390000      -0.65680000
H        2.39040000       1.87220000       0.19930000
H        1.79230000      -0.85460000       0.96930000
H        0.83280000       0.26480000       2.02560000
H       -0.74680000      -1.47320000      -2.50540000
H       -1.83480000      -0.07160000      -2.44160000
H        0.83750000       0.14280000      -3.31160000
H       -0.01740000       1.49150000      -2.56650000
H        1.83370000      -0.57230000      -1.21790000
