16
Properties=species:S:1:pos:R:3 gdb_43279=T pbc="F F F"
O       -0.11890000      -0.04630000      -0.34240000
C       -0.04780000       1.12830000      -0.08810000
C       -1.22030000       2.07730000       0.09440000
C       -0.86320000       3.25000000       0.65730000
C        0.60430000       3.15930000       0.95620000
C        2.04030000       3.75500000       0.90380000
N        2.31940000       2.23520000       1.10100000
C        1.18630000       2.31020000       2.12760000
C        1.15860000       2.07330000       0.05630000
H       -2.22830000       1.76150000      -0.14720000
H       -1.54400000       4.04580000       0.94020000
H        2.39850000       4.14900000      -0.04980000
H        2.38780000       4.35450000       1.74860000
H        1.46450000       2.82760000       3.04890000
H        0.71430000       1.34590000       2.33370000
H        1.47750000       2.38110000      -0.94600000
