18
Properties=species:S:1:pos:R:3 gdb_6814=T pbc="F F F"
C       -0.18180000       1.53780000      -0.02490000
C       -0.02520000       0.02460000       0.00990000
C       -1.29750000      -0.70210000      -0.39450000
O        1.09680000      -0.39450000      -0.82170000
C        1.89260000      -0.75200000       0.31750000
C        0.69650000      -0.55460000       1.28360000
C        0.87820000       0.27590000       2.45300000
C        1.03880000       0.96890000       3.42300000
H        0.74370000       2.03710000       0.27130000
H       -0.43750000       1.85480000      -1.04070000
H       -0.97620000       1.86480000       0.65310000
H       -1.60380000      -0.39830000      -1.40070000
H       -1.14080000      -1.78430000      -0.39850000
H       -2.11320000      -0.46720000       0.29760000
H        2.28990000      -1.77020000       0.24590000
H        2.71890000      -0.05120000       0.48770000
H        0.25200000      -1.51200000       1.57090000
H        1.17920000       1.57810000       4.28130000
