20
Properties=species:S:1:pos:R:3 gdb_95235=T pbc="F F F"
O       -0.12510000       1.49350000      -0.12410000
C        0.06020000       0.08490000      -0.03450000
C       -1.32920000      -0.52320000       0.24120000
C       -1.42230000      -2.01960000      -0.07370000
N       -0.30980000      -2.77950000       0.50650000
C        0.14940000      -3.91510000      -0.29200000
C        0.98200000      -2.68210000      -0.19840000
C        1.15290000      -1.74140000      -1.34650000
C        0.72790000      -0.47990000      -1.27370000
H        0.74380000       1.90740000      -0.12720000
H        0.70010000      -0.15180000       0.82960000
H       -1.58350000      -0.32970000       1.28760000
H       -2.06050000       0.01260000      -0.37370000
H       -2.34970000      -2.42690000       0.34410000
H       -1.47860000      -2.15280000      -1.16460000
H        0.42800000      -4.80910000       0.25970000
H       -0.35940000      -4.10310000      -1.23660000
H        1.83390000      -2.72300000       0.48330000
H        1.64870000      -2.11080000      -2.24110000
H        0.83510000       0.20150000      -2.11460000
