16
Properties=species:S:1:pos:R:3 gdb_23110=T pbc="F F F"
O       -0.19510000       1.43800000      -0.06450000
N        0.00960000       0.05560000       0.07350000
C       -1.09440000      -0.58910000       0.03210000
C       -2.47180000      -0.12730000      -0.12000000
C       -3.31590000      -1.16530000      -0.04500000
C       -2.61400000      -2.48200000       0.17130000
C       -1.11430000      -2.11470000       0.12720000
C       -0.37100000      -2.70280000      -1.07130000
O       -0.84020000      -3.48210000      -1.85790000
H        0.70120000       1.78410000      -0.00100000
H       -2.72820000       0.91200000      -0.26430000
H       -4.39500000      -1.09470000      -0.12480000
H       -2.90030000      -2.93270000       1.12870000
H       -2.85430000      -3.21150000      -0.60930000
H       -0.56410000      -2.43870000       1.01810000
H        0.66970000      -2.32910000      -1.16760000
