15
Properties=species:S:1:pos:R:3 gdb_17025=T pbc="F F F"
C       -0.02900000       1.62470000       0.02170000
C       -0.01900000       0.10940000       0.00720000
C        1.20310000      -0.62960000      -0.61040000
O        2.03150000      -0.19480000       0.53260000
C        0.75600000      -0.64910000       1.12300000
C        0.85600000      -1.91310000       0.21010000
C       -0.31930000      -2.70610000      -0.10190000
N       -1.25390000      -3.34020000      -0.35000000
H        0.95660000       2.01640000       0.28030000
H       -0.31610000       2.01690000      -0.95940000
H       -0.75690000       1.99770000       0.74950000
H       -0.99280000      -0.31700000      -0.24870000
H        1.63880000      -0.57160000      -1.60760000
H        0.65500000      -0.61450000       2.20750000
H        1.72640000      -2.53230000       0.42760000
