13
Properties=species:S:1:pos:R:3 gdb_131090=T pbc="F F F"
O        0.02730000       0.06580000       0.38770000
C        0.13840000       1.19510000       0.02820000
O        0.89140000       2.09960000       0.69770000
C        0.93400000       3.43760000       0.19810000
C        2.35930000       3.87910000       0.10330000
N        2.72760000       5.09540000       0.40280000
O        4.07050000       5.14510000       0.17280000
N        4.54710000       3.94140000      -0.26200000
C        3.51140000       3.15190000      -0.31200000
H       -0.34360000       1.62330000      -0.87260000
H        0.45070000       3.48690000      -0.78710000
H        0.38770000       4.09610000       0.87850000
H        3.60590000       2.12170000      -0.61600000
