21
Properties=species:S:1:pos:R:3 gdb_113953=T pbc="F F F"
C       -0.43460000       0.97780000      -0.15210000
O        0.36280000      -0.13830000       0.20660000
C        0.94370000      -0.75940000      -0.88920000
C        1.19090000      -2.23570000      -0.75160000
C        0.13150000      -1.72870000      -1.71030000
O       -1.21930000      -1.84390000      -1.38790000
C       -1.78390000      -3.07740000      -1.72920000
C       -1.81730000      -4.19250000      -0.71750000
C       -3.07500000      -3.41660000      -1.06170000
H        0.15850000       1.74500000      -0.67350000
H       -1.27310000       0.67880000      -0.79180000
H       -0.81910000       1.40420000       0.77750000
H        1.67770000      -0.15070000      -1.42190000
H        2.10550000      -2.66560000      -1.14440000
H        0.82910000      -2.67100000       0.17210000
H        0.34320000      -1.79340000      -2.77880000
H       -1.65750000      -3.34470000      -2.77860000
H       -1.71760000      -5.21500000      -1.06540000
H       -1.37130000      -3.99380000       0.24960000
H       -3.43250000      -2.70900000      -0.32230000
H       -3.85140000      -3.89760000      -1.64570000
