17
Properties=species:S:1:pos:R:3 gdb_18678=T pbc="F F F"
O        0.03580000      -0.01780000      -0.29490000
C        0.01860000       1.17930000      -0.10180000
C       -1.28910000       1.96250000       0.04530000
N       -1.30450000       3.17150000      -0.78410000
C       -0.25150000       4.11530000      -0.40880000
C        1.14990000       3.51250000      -0.20860000
C        1.52140000       2.91660000       1.11060000
C        1.26410000       1.99690000      -0.08040000
H       -2.11140000       1.29850000      -0.23260000
H       -1.44280000       2.25990000       1.09190000
H       -1.18100000       2.89960000      -1.75520000
H       -0.20570000       4.88750000      -1.18210000
H       -0.56650000       4.61620000       0.51610000
H        1.95140000       3.99230000      -0.76200000
H        2.54670000       2.98650000       1.45530000
H        0.78210000       2.93410000       1.90510000
H        2.12570000       1.49320000      -0.50390000
