15
Properties=species:S:1:pos:R:3 gdb_4259=T pbc="F F F"
C        0.01160000       1.50430000      -0.03300000
C       -0.04800000       0.00900000       0.01130000
C       -1.15610000      -0.74130000      -0.13200000
C       -1.10220000      -2.20080000      -0.07130000
N       -2.16630000      -2.90170000      -0.20950000
N        0.17210000      -2.78770000       0.14540000
C        1.18820000      -2.01860000       0.27390000
N        1.15930000      -0.65080000       0.22030000
H        0.67040000       1.85120000      -0.83860000
H       -0.98280000       1.91940000      -0.20180000
H        0.40010000       1.91370000       0.90760000
H       -2.11950000      -0.27620000      -0.29660000
H       -1.91380000      -3.88970000      -0.13520000
H        2.17600000      -2.44680000       0.44090000
H        2.01130000      -0.12650000       0.33230000
