22
Properties=species:S:1:pos:R:3 gdb_100333=T pbc="F F F"
C       -0.13580000       1.54410000       0.13530000
C       -0.01050000       0.02140000       0.01470000
C        0.70000000      -0.52030000      -1.25010000
C        0.63800000      -2.05750000      -1.23910000
C        0.03480000       0.00680000      -2.53390000
O       -1.34320000      -0.32470000      -2.49650000
C        2.18410000      -0.05740000      -1.30960000
C        2.97640000      -0.48810000      -0.16020000
N        3.59610000      -0.83010000       0.75360000
H        0.83590000       2.04940000       0.12830000
H       -0.74610000       1.96480000      -0.66930000
H       -0.62190000       1.80370000       1.08050000
H        0.52010000      -0.36910000       0.89080000
H       -1.01290000      -0.41580000       0.03720000
H       -0.40100000      -2.38930000      -1.29410000
H        1.17420000      -2.48140000      -2.09600000
H        1.08650000      -2.46300000      -0.32760000
H        0.17580000       1.09610000      -2.61140000
H        0.52850000      -0.45010000      -3.40730000
H       -1.74950000      -0.02970000      -3.31630000
H        2.65860000      -0.45330000      -2.21570000
H        2.24660000       1.03450000      -1.37510000
