15
Properties=species:S:1:pos:R:3 gdb_27340=T pbc="F F F"
O        0.04500000       1.36040000       0.13570000
C        0.01440000       0.00340000       0.04160000
C       -1.14320000      -0.69200000       0.02620000
C       -1.17690000      -2.14750000       0.01590000
N       -2.22070000      -2.90340000       0.01940000
C        0.16040000      -2.77010000      -0.03220000
O        0.16830000      -4.12530000      -0.08840000
C        1.28270000      -2.01990000      -0.02890000
N        1.23640000      -0.62130000      -0.02710000
H        0.75290000       1.70180000      -0.42400000
H       -2.07490000      -0.14040000       0.00270000
H       -3.06240000      -2.32370000       0.05030000
H        1.07930000      -4.43770000      -0.11580000
H        2.27730000      -2.44820000      -0.06760000
H        2.01530000      -0.13590000       0.39350000
