20
Properties=species:S:1:pos:R:3 gdb_114143=T pbc="F F F"
C        0.08370000       1.50930000      -0.06760000
C        0.01750000      -0.00450000       0.15800000
C       -1.39630000      -0.56270000       0.03820000
C       -2.10040000      -0.56890000      -1.37170000
C       -2.28590000      -2.09010000      -1.23590000
N       -0.90380000      -2.64510000      -1.09990000
C       -1.57580000      -2.08760000       0.08820000
C       -3.36840000      -2.88370000      -1.69900000
C       -4.29390000      -3.53850000      -2.10490000
H        1.11030000       1.87820000       0.01960000
H       -0.28140000       1.77900000      -1.06460000
H       -0.52720000       2.04960000       0.66460000
H        0.65930000      -0.52270000      -0.56230000
H        0.41040000      -0.24360000       1.15530000
H       -2.05630000      -0.08700000       0.77150000
H       -3.04340000      -0.02070000      -1.38160000
H       -1.48670000      -0.26930000      -2.22460000
H       -0.99910000      -3.65970000      -1.05380000
H       -1.76340000      -2.70520000       0.95890000
H       -5.10910000      -4.11820000      -2.46080000
