23
Properties=species:S:1:pos:R:3 gdb_65025=T pbc="F F F"
C        0.09020000       1.45280000       0.44580000
C       -0.03190000      -0.00410000       0.03530000
C        0.84680000      -0.48600000      -1.09380000
C        1.12910000      -0.92280000       0.32530000
C       -1.43540000      -0.59100000       0.14950000
C       -1.96850000      -0.56690000       1.57800000
C       -2.44380000      -0.12250000      -0.93860000
C       -2.45050000      -1.59660000      -1.37670000
O       -1.48210000      -1.95520000      -0.37030000
H        1.10110000       1.82300000       0.25100000
H       -0.60610000       2.08770000      -0.11570000
H       -0.11210000       1.59810000       1.51210000
H        0.45260000      -1.24090000      -1.76310000
H        1.51420000       0.23340000      -1.55680000
H        1.99240000      -0.51040000       0.83700000
H        0.90440000      -1.95510000       0.56800000
H       -2.08820000       0.45800000       1.94250000
H       -2.94280000      -1.06160000       1.62470000
H       -1.28340000      -1.09410000       2.24920000
H       -3.39190000       0.26620000      -0.56270000
H       -2.02880000       0.57380000      -1.66890000
H       -3.39800000      -2.13110000      -1.23560000
H       -2.08120000      -1.79710000      -2.38970000
