17
Properties=species:S:1:pos:R:3 gdb_35388=T pbc="F F F"
N       -0.10890000      -1.16100000      -0.17040000
C       -0.07280000      -0.01100000      -0.06430000
C       -0.00590000       1.45410000       0.03790000
N       -0.46450000       1.94600000       1.36220000
C        0.68720000       2.73660000       1.78820000
C        1.38450000       3.45830000       0.58050000
C        2.75080000       3.22610000       1.26450000
C        1.97070000       1.91180000       1.50160000
C        1.43500000       1.99580000       0.03260000
H       -0.59100000       1.87240000      -0.79060000
H       -1.30030000       2.51260000       1.26700000
H        0.55550000       3.24460000       2.74350000
H        1.03720000       4.34210000       0.04220000
H        3.62210000       3.16190000       0.60860000
H        2.96860000       3.83410000       2.14670000
H        2.29370000       1.01060000       2.02210000
H        2.07890000       1.73610000      -0.80700000
