18
Properties=species:S:1:pos:R:3 gdb_51569=T pbc="F F F"
O       -0.33160000       0.02310000      -0.25640000
C        0.02240000       1.15860000      -0.07030000
C        1.43260000       1.67090000      -0.28980000
C        1.43450000       2.88050000      -1.20720000
N        1.04080000       4.16690000      -0.61270000
C        2.41380000       4.00180000      -1.11390000
C        3.51720000       4.06790000      -0.10980000
C        4.92230000       3.92510000      -0.51360000
O        4.37680000       5.20820000      -0.20810000
H       -0.69020000       1.93700000       0.28330000
H        1.83310000       1.95630000       0.69000000
H        2.04420000       0.85980000      -0.69570000
H        1.07320000       2.66780000      -2.21280000
H        0.48090000       4.71800000      -1.25650000
H        2.67370000       4.48760000      -2.05320000
H        3.23790000       3.80980000       0.91040000
H        5.65240000       3.54070000       0.19690000
H        5.16510000       3.75830000      -1.56270000
