18
Properties=species:S:1:pos:R:3 gdb_22373=T pbc="F F F"
C       -0.37490000       1.56800000       0.01830000
C        0.02650000       0.11260000       0.01120000
C       -1.04370000      -0.97080000       0.25050000
O       -0.23300000      -1.63860000       1.24480000
C        0.79830000      -0.62720000       1.16640000
C        1.87750000      -0.97440000       0.16800000
C        1.13360000      -0.34530000      -0.99760000
N        3.01160000      -1.50510000       0.35560000
O        3.72230000      -1.61760000      -0.84930000
H        0.50230000       2.22240000       0.06130000
H       -0.93180000       1.82400000      -0.89120000
H       -1.01290000       1.80190000       0.87700000
H       -1.97780000      -0.59610000       0.68990000
H       -1.28370000      -1.62100000      -0.59990000
H        1.07160000      -0.22320000       2.14420000
H        0.81320000      -1.02760000      -1.79090000
H        1.68950000       0.47730000      -1.45940000
H        4.54970000      -2.01920000      -0.56210000
