17
Properties=species:S:1:pos:R:3 gdb_44720=T pbc="F F F"
O        0.17430000       0.11570000      -0.69650000
C        0.08280000       1.19250000      -0.18600000
C       -1.06120000       1.94140000       0.52960000
C       -0.11600000       3.16450000       0.68590000
C        0.73160000       3.15830000       1.98250000
C        1.90340000       2.42690000       1.23480000
C        2.38860000       1.17380000       1.77350000
C        2.76710000       0.12870000       2.23210000
C        1.03040000       2.39530000      -0.07730000
H       -1.90360000       2.11290000      -0.14930000
H       -1.44510000       1.48090000       1.44470000
H       -0.50090000       4.12330000       0.34300000
H        1.01600000       4.14760000       2.34550000
H        0.30060000       2.59410000       2.81230000
H        2.74330000       3.11140000       1.08570000
H        3.10540000      -0.79780000       2.62550000
H        1.52410000       2.72020000      -0.99370000
