16
Properties=species:S:1:pos:R:3 gdb_18138=T pbc="F F F"
C       -0.10930000       1.49810000      -0.18520000
C        0.03730000       0.00610000       0.01300000
C        1.32120000      -0.74250000      -0.15020000
O        2.44260000       0.03840000       0.28720000
C        1.95380000      -0.01010000       1.66300000
C        1.92860000       1.26540000       2.36030000
C        1.92820000       2.29470000       2.98130000
C        0.65860000      -0.69570000       1.21140000
H        0.82910000       2.01540000       0.01840000
H       -0.39630000       1.71230000      -1.22040000
H       -0.87950000       1.91370000       0.47190000
H       -0.80710000      -0.58110000      -0.34730000
H        1.52070000      -1.55050000      -0.84470000
H        2.57950000      -0.71530000       2.22550000
H        1.91810000       3.21070000       3.51900000
H        0.14810000      -1.46010000       1.78110000
