17
Properties=species:S:1:pos:R:3 gdb_71066=T pbc="F F F"
C       -0.04810000       1.42800000      -0.19120000
C       -0.10110000      -0.05860000      -0.07490000
O        0.63810000      -0.81620000      -1.15630000
C        0.05180000      -1.90140000      -0.49720000
N        0.72460000      -2.70900000       0.21120000
C        0.31660000      -2.25940000       1.59300000
C       -0.34010000      -0.87840000       1.32820000
C       -1.15450000      -1.05450000       0.09660000
N       -2.55410000      -1.01880000      -0.09180000
H        0.96410000       1.80230000      -0.01460000
H       -0.36380000       1.73970000      -1.19130000
H       -0.72060000       1.87770000       0.54400000
H       -0.36080000      -2.93520000       2.13880000
H        1.25400000      -2.19650000       2.15360000
H       -0.68700000      -0.24860000       2.14570000
H       -2.79890000      -1.00840000      -1.07700000
H       -3.00590000      -1.82320000       0.33110000
