9
Properties=species:S:1:pos:R:3 gdb_132408=T pbc="F F F"
F        0.00050000       0.09960000       0.00360000
C       -0.01690000       1.40360000       0.01070000
N       -1.21200000       1.96990000       0.03010000
C       -1.14070000       3.29050000       0.03600000
F       -2.27850000       3.92720000       0.05510000
N       -0.05280000       4.04250000       0.02490000
C        1.05510000       3.32050000       0.00590000
F        2.17520000       3.98810000      -0.00620000
N        1.16240000       2.00220000      -0.00250000
