20
Properties=species:S:1:pos:R:3 gdb_111510=T pbc="F F F"
C       -0.26730000       1.26090000      -0.05060000
O        0.21770000      -0.06020000       0.07620000
C        0.73790000      -0.59730000      -1.11180000
C        1.25070000      -2.00040000      -0.86520000
N        0.15440000      -2.99920000      -0.83360000
C        0.96680000      -2.82810000      -2.06150000
C        0.26240000      -1.96960000      -3.09690000
C       -0.29830000      -0.77440000      -2.28090000
O       -1.60180000      -1.00610000      -1.79580000
H        0.50090000       1.93550000      -0.46200000
H       -1.16050000       1.30170000      -0.68500000
H       -0.52780000       1.60200000       0.95450000
H        1.57630000       0.02510000      -1.47630000
H        2.11840000      -2.15610000      -0.23390000
H        0.45980000      -3.82330000      -0.32380000
H        1.62590000      -3.63500000      -2.36460000
H        0.98880000      -1.62960000      -3.84490000
H       -0.54850000      -2.48590000      -3.61840000
H       -0.36130000       0.12680000      -2.89620000
H       -1.51750000      -1.76020000      -1.19160000
