16
Properties=species:S:1:pos:R:3 gdb_17302=T pbc="F F F"
O       -0.05250000       1.41020000      -0.05670000
C        0.02070000       0.02260000       0.00350000
C       -1.33930000      -0.68940000       0.07340000
O       -0.87640000      -1.52700000       1.16780000
C        0.38320000      -0.81470000       1.25260000
C        1.58420000      -1.44230000       0.50430000
C        1.11850000      -2.15800000      -0.72780000
C        1.19000000      -0.65610000      -0.76080000
H        0.84360000       1.76410000      -0.07030000
H       -2.14420000      -0.01750000       0.39380000
H       -1.66270000      -1.27440000      -0.79440000
H        0.57620000      -0.39110000       2.24080000
H        2.56440000      -1.60850000       0.93490000
H        1.89890000      -2.65980000      -1.29100000
H        0.16820000      -2.67990000      -0.71750000
H        1.81490000      -0.13140000      -1.47610000
