20
Properties=species:S:1:pos:R:3 gdb_79855=T pbc="F F F"
C       -0.13210000       1.57560000       0.01230000
C       -0.00980000       0.06230000      -0.00510000
C        1.23200000      -0.60490000      -0.64190000
N        2.06600000      -0.14320000       0.54550000
C        3.08770000      -1.19920000       0.78510000
C        2.32140000      -2.52000000       0.55120000
C        0.96520000      -1.90260000       0.21290000
O       -0.12120000      -2.74630000      -0.01130000
C        0.75520000      -0.66360000       1.12960000
H        0.81630000       2.04100000       0.28720000
H       -0.43190000       1.95140000      -0.97250000
H       -0.89760000       1.89440000       0.72860000
H       -0.94730000      -0.43010000      -0.27210000
H        1.61290000      -0.52570000      -1.66410000
H        3.92230000      -1.05180000       0.09360000
H        3.47270000      -1.10020000       1.80380000
H        2.72080000      -3.11770000      -0.27630000
H        2.26470000      -3.16270000       1.43480000
H        0.13560000      -3.41010000      -0.65980000
H        0.56930000      -0.65250000       2.20670000
