20
Properties=species:S:1:pos:R:3 gdb_124559=T pbc="F F F"
C       -0.08560000       1.54770000      -0.08870000
C        0.01790000       0.02160000       0.01340000
C        0.92790000      -0.39720000       1.17430000
C       -1.39540000      -0.59880000       0.14170000
C       -1.41770000      -2.08680000       0.05240000
C       -1.72860000      -3.08320000       0.92800000
C       -1.52640000      -4.26880000       0.17360000
N       -1.12850000      -4.01870000      -1.04850000
O       -1.05880000      -2.62810000      -1.12860000
H        0.90390000       1.99970000      -0.20910000
H       -0.70040000       1.85240000      -0.94210000
H       -0.53570000       1.97250000       0.81680000
H        0.45290000      -0.35800000      -0.91960000
H        1.93570000       0.00960000       1.04510000
H        0.53910000      -0.02350000       2.12970000
H        1.01190000      -1.48520000       1.25020000
H       -1.84300000      -0.30440000       1.09760000
H       -2.03570000      -0.19070000      -0.65020000
H       -2.05320000      -2.98570000       1.95030000
H       -1.65880000      -5.29720000       0.47980000
