17
Properties=species:S:1:pos:R:3 gdb_19698=T pbc="F F F"
O        0.29830000       0.63150000      -0.93600000
C       -0.07780000       0.40360000       0.41610000
C       -1.42000000      -0.30430000       0.39060000
C       -1.54830000      -1.76400000      -0.00770000
C       -1.40750000      -2.61890000       1.21240000
C       -1.18430000      -1.73070000       2.42220000
C       -2.12960000      -0.76260000       1.68340000
N       -2.73280000      -1.97720000       0.89680000
H        1.16950000       1.03840000      -0.94250000
H        0.67360000      -0.20850000       0.93600000
H       -0.17340000       1.35190000       0.97160000
H       -2.11940000       0.28650000      -0.21030000
H       -1.52650000      -2.18410000      -1.00640000
H       -1.27830000      -3.69320000       1.14190000
H       -1.67750000      -2.15240000       3.30180000
H       -0.17470000      -1.40290000       2.69000000
H       -2.79330000      -0.09370000       2.22830000
