22
Properties=species:S:1:pos:R:3 gdb_58760=T pbc="F F F"
C        0.04910000       1.32110000      -0.50840000
C        0.01900000      -0.17670000      -0.20080000
O        0.73190000      -0.93120000      -1.18030000
C        0.66590000      -0.51200000       1.12370000
C        2.10970000      -0.23420000       1.60870000
N        1.50340000      -0.96860000       2.81890000
C        0.27780000      -0.07400000       2.55380000
C        0.90170000      -1.91650000       1.74770000
C       -0.21110000      -2.86210000       2.15690000
H        1.08150000       1.68100000      -0.55260000
H       -0.42850000       1.52970000      -1.47260000
H       -0.48830000       1.89090000       0.25660000
H       -1.03280000      -0.51060000      -0.16050000
H        0.35910000      -0.72490000      -2.04330000
H        2.92630000      -0.77830000       1.12810000
H        2.39030000       0.79880000       1.83190000
H        0.44510000       0.97130000       2.82920000
H       -0.65190000      -0.43850000       2.99220000
H        1.69800000      -2.48940000       1.26130000
H       -1.08930000      -2.36670000       2.57710000
H       -0.53820000      -3.43770000       1.28450000
H        0.16270000      -3.57140000       2.90280000
