19
Properties=species:S:1:pos:R:3 gdb_59749=T pbc="F F F"
C        0.09210000       1.10990000       0.98760000
C       -0.41140000       0.51230000      -0.32400000
O        0.54020000      -0.38310000      -0.90300000
C       -1.78690000      -0.17830000      -0.17360000
O       -2.45130000      -0.33250000      -1.41730000
C       -2.23230000      -1.66010000      -1.91350000
C       -2.19150000      -2.54900000      -0.66890000
C       -1.62660000      -1.60190000       0.38310000
O       -1.10790000      -1.89530000       1.43070000
H        1.07870000       1.55640000       0.83620000
H       -0.58650000       1.88780000       1.35160000
H        0.16420000       0.33770000       1.76040000
H       -0.54880000       1.29940000      -1.07310000
H        0.88650000      -0.93440000      -0.19160000
H       -2.42800000       0.42130000       0.48450000
H       -3.05350000      -1.89160000      -2.59530000
H       -1.28420000      -1.71260000      -2.46220000
H       -3.20190000      -2.83860000      -0.35500000
H       -1.58720000      -3.45360000      -0.75570000
