19
Properties=species:S:1:pos:R:3 gdb_26156=T pbc="F F F"
C       -0.02170000       1.60100000       0.00910000
C        0.02620000       0.06890000       0.11080000
O        0.63810000      -0.33140000       1.32940000
C       -1.34500000      -0.54230000       0.00220000
C       -2.00820000      -1.08980000      -1.06790000
C       -1.63300000      -1.29600000      -2.49640000
N       -3.23760000      -1.47210000      -0.55710000
C       -3.25630000      -1.15360000       0.76680000
N       -2.13310000      -0.58850000       1.13610000
H        0.98090000       2.01340000       0.15390000
H       -0.39860000       1.92170000      -0.96840000
H       -0.68240000       2.00660000       0.78170000
H        0.66230000      -0.31790000      -0.69580000
H       -0.08170000      -0.38730000       1.97250000
H       -1.76580000      -2.33920000      -2.80780000
H       -2.22420000      -0.67120000      -3.17740000
H       -0.58190000      -1.03960000      -2.64670000
H       -3.97550000      -1.92370000      -1.07180000
H       -4.10580000      -1.36000000       1.40060000
