10
Properties=species:S:1:pos:R:3 gdb_249=T pbc="F F F"
N       -0.11100000       1.28790000      -0.02310000
C        0.09240000      -0.04880000      -0.00620000
O        1.15720000      -0.61310000      -0.00410000
O       -1.13860000      -0.67830000      -0.00130000
C       -1.13720000      -2.04720000       0.00020000
N       -2.24750000      -2.63890000       0.00930000
H        0.68900000       1.89220000       0.02790000
H       -1.03930000       1.66690000       0.03450000
H       -0.13010000      -2.46510000      -0.00710000
H       -2.09740000      -3.64660000       0.00880000
