19
Properties=species:S:1:pos:R:3 gdb_107268=T pbc="F F F"
C        0.21320000       1.49980000      -0.15950000
C       -0.10180000       0.02190000       0.10890000
C        0.59440000      -0.50600000       1.32880000
O        2.01060000      -0.77590000       1.23810000
C        1.11380000      -1.85130000       1.57150000
C        0.79280000      -1.98510000       3.08160000
C        1.27990000      -0.64750000       3.68170000
C        0.11730000      -0.18310000       2.77880000
O       -0.57770000      -1.44040000       3.10880000
H        1.28800000       1.64470000      -0.30340000
H       -0.30160000       1.85090000      -1.05830000
H       -0.10280000       2.13560000       0.67450000
H       -1.18160000      -0.11940000       0.24230000
H        0.19620000      -0.58320000      -0.75400000
H        1.06580000      -2.68320000       0.87730000
H        0.89440000      -2.95500000       3.56600000
H        1.01010000      -0.57300000       4.73440000
H        2.29100000      -0.30200000       3.47800000
H       -0.48120000       0.71040000       2.95300000
