19
Properties=species:S:1:pos:R:3 gdb_36599=T pbc="F F F"
C        0.07220000      -1.15440000      -0.00570000
C        0.06010000       0.04620000       0.00160000
C        0.00800000       1.50120000       0.01090000
O        1.32760000       2.02950000      -0.00030000
C        1.37320000       3.40840000       0.00720000
C        0.85430000       4.39870000       1.10310000
C        1.55970000       5.25880000       0.01600000
C        2.69950000       4.19690000      -0.00320000
C        0.82960000       4.41140000      -1.06490000
H        0.09030000      -2.21620000      -0.01220000
H       -0.55410000       1.85890000      -0.86580000
H       -0.53470000       1.84830000       0.90400000
H       -0.22780000       4.52540000       1.19570000
H        1.34270000       4.34370000       2.07940000
H        1.67500000       6.33950000       0.02100000
H        3.31710000       4.12160000       0.89510000
H        3.29650000       4.13220000      -0.91620000
H        1.29570000       4.36790000      -2.05260000
H       -0.25420000       4.53900000      -1.13140000
