17
Properties=species:S:1:pos:R:3 gdb_55949=T pbc="F F F"
C        0.00660000       1.46120000      -0.07710000
C       -0.08120000      -0.02610000       0.13640000
N       -0.37480000      -0.66710000       1.18720000
O        0.20770000      -0.66990000      -1.03130000
C        0.22040000      -2.08400000      -1.02350000
C        0.11360000      -2.59090000      -2.47500000
N        1.46230000      -3.07120000      -2.81530000
C        2.11970000      -3.00130000      -1.73600000
O        1.51570000      -2.54280000      -0.60530000
H        1.02270000       1.73580000      -0.37630000
H       -0.66200000       1.76560000      -0.88800000
H       -0.25850000       2.00300000       0.83190000
H       -0.57870000      -0.03080000       1.95360000
H       -0.51200000      -2.45380000      -0.30920000
H       -0.60540000      -3.41080000      -2.57030000
H       -0.19560000      -1.78410000      -3.14430000
H        3.15570000      -3.29120000      -1.60330000
