21
Properties=species:S:1:pos:R:3 gdb_30683=T pbc="F F F"
C        0.00410000       1.56390000       0.23200000
C       -0.02370000       0.04090000       0.07560000
C       -1.43520000      -0.55780000      -0.12650000
C       -2.07940000      -0.12130000      -1.44830000
C       -1.38550000      -2.05560000       0.00340000
C       -1.67980000      -3.02530000      -0.92280000
N       -1.45670000      -4.22940000      -0.28660000
C       -1.04410000      -3.94270000       0.97860000
N       -0.98940000      -2.64950000       1.18780000
H        1.02100000       1.91490000       0.43490000
H       -0.34510000       2.08110000      -0.66760000
H       -0.62910000       1.88600000       1.06680000
H        0.61060000      -0.26010000      -0.76940000
H        0.40870000      -0.42490000       0.96670000
H       -2.05990000      -0.18670000       0.69910000
H       -1.47190000      -0.43750000      -2.30460000
H       -3.07780000      -0.55500000      -1.56400000
H       -2.18270000       0.96550000      -1.49970000
H       -2.02000000      -2.98100000      -1.94320000
H       -1.58370000      -5.14460000      -0.68390000
H       -0.80310000      -4.71390000       1.69550000
