23
Properties=species:S:1:pos:R:3 gdb_114773=T pbc="F F F"
C        0.93200000      -0.28260000      -1.34740000
C        0.11690000       0.10610000      -0.10960000
C        0.65900000      -0.50090000       1.19440000
C       -0.11510000      -0.07560000       2.48360000
C       -0.78930000      -1.36040000       2.98650000
C       -1.80390000      -1.91230000       1.93380000
C       -0.68270000      -2.78950000       1.37420000
C        0.17690000      -2.52090000       2.60170000
C        0.63510000      -2.03130000       1.26150000
H        0.91260000      -1.36450000      -1.51460000
H        0.53920000       0.19850000      -2.24860000
H        1.98090000       0.01770000      -1.24100000
H        0.10900000       1.19940000      -0.01110000
H       -0.92710000      -0.19620000      -0.25280000
H        1.70560000      -0.18090000       1.28660000
H        0.58200000       0.30630000       3.23770000
H       -0.84540000       0.71710000       2.28560000
H       -1.15170000      -1.30820000       4.01340000
H       -2.57390000      -2.52660000       2.40940000
H       -2.29300000      -1.18690000       1.27350000
H       -0.82030000      -3.72460000       0.84260000
H        0.70850000      -3.19940000       3.25560000
H        1.42340000      -2.58660000       0.76370000
