15
Properties=species:S:1:pos:R:3 gdb_14259=T pbc="F F F"
O        0.50190000       1.01570000      -0.67460000
C        0.08820000      -0.17600000      -0.07700000
C        0.23040000      -0.35730000       1.47530000
C       -1.30030000      -0.66830000       1.57590000
C       -1.43770000      -0.39310000       0.05190000
O       -2.10480000       0.87750000       0.34980000
C       -2.10560000       0.59750000       1.71810000
N       -2.61640000       1.22930000       2.66910000
H       -0.13590000       1.69330000      -0.41460000
H        0.56770000      -0.99600000      -0.61980000
H        0.86960000      -1.19390000       1.76250000
H        0.54980000       0.53400000       2.01850000
H       -1.63080000      -1.56230000       2.09740000
H       -2.00260000      -0.97570000      -0.67480000
H       -3.09030000       2.07590000       2.35020000
