20
Properties=species:S:1:pos:R:3 gdb_103719=T pbc="F F F"
C        0.09600000       1.25160000      -0.33550000
O       -0.09310000      -0.00040000       0.30130000
C       -1.37640000      -0.53750000       0.16890000
C       -2.44340000       0.15300000       0.98930000
C       -1.71660000      -1.16950000      -1.15400000
C       -1.36330000      -2.06320000       0.03990000
C       -0.04150000      -2.81720000       0.03860000
C       -2.45220000      -2.78480000       0.65120000
N       -3.31740000      -3.37540000       1.14330000
H        1.15800000       1.48970000      -0.24590000
H       -0.17470000       1.20950000      -1.39960000
H       -0.48480000       2.05120000       0.14250000
H       -2.61660000       1.17120000       0.62690000
H       -3.39190000      -0.38530000       0.94050000
H       -2.13270000       0.20800000       2.03690000
H       -2.74570000      -1.15360000      -1.49420000
H       -0.96980000      -1.13060000      -1.93940000
H        0.74830000      -2.18360000      -0.36440000
H        0.24000000      -3.10630000       1.05510000
H       -0.11980000      -3.72530000      -0.56610000
