21
Properties=species:S:1:pos:R:3 gdb_91432=T pbc="F F F"
C        0.39120000       1.55300000      -0.22970000
C        0.07270000       0.08980000       0.04420000
C        0.55490000      -0.98960000      -0.97800000
C        1.16700000      -1.81880000       0.18130000
C        2.66510000      -1.52590000       0.46440000
C        2.27030000      -0.49470000       1.55920000
C        2.87270000       0.88830000       1.52950000
O        2.78750000       1.68500000       2.42990000
C        0.75020000      -0.70340000       1.20550000
H        1.44200000       1.70110000      -0.49950000
H       -0.20960000       1.92260000      -1.06830000
H        0.17910000       2.18330000       0.63990000
H       -1.00980000      -0.00420000       0.18500000
H       -0.25170000      -1.48350000      -1.52530000
H        1.29000000      -0.63530000      -1.70870000
H        0.84440000      -2.85560000       0.27900000
H        3.24460000      -2.37210000       0.84020000
H        3.20540000      -1.09940000      -0.38870000
H        2.43830000      -0.88310000       2.56780000
H        3.43360000       1.14000000       0.59740000
H        0.11820000      -0.88340000       2.07560000
