19
Properties=species:S:1:pos:R:3 gdb_128833=T pbc="F F F"
C        0.00690000       1.38310000       0.08610000
O        0.03920000      -0.02360000       0.03620000
C        0.61990000      -0.51820000      -1.14740000
C        0.58480000      -2.04900000      -1.08890000
C        1.19220000      -2.68600000      -2.29790000
C        0.66790000      -3.02210000      -3.53300000
C        1.75490000      -3.54840000      -4.26170000
N        2.87780000      -3.54780000      -3.54920000
N        2.50950000      -3.01680000      -2.36690000
H        1.01850000       1.81710000       0.04140000
H       -0.58400000       1.80800000      -0.74060000
H       -0.45700000       1.66640000       1.03390000
H        0.07040000      -0.16270000      -2.03470000
H        1.66020000      -0.16410000      -1.25060000
H        1.10420000      -2.37300000      -0.17970000
H       -0.45640000      -2.36830000      -0.98580000
H       -0.35590000      -2.90640000      -3.85140000
H        1.76410000      -3.93200000      -5.27160000
H        3.19900000      -2.92490000      -1.63930000
