13
Properties=species:S:1:pos:R:3 gdb_11146=T pbc="F F F"
N       -0.04330000       1.29060000       0.00660000
C        0.00700000       0.02270000       0.00050000
C       -1.18260000      -0.93510000       0.00250000
N       -0.63820000      -2.29680000      -0.00680000
C        0.63800000      -2.16260000      -0.01320000
N        1.10020000      -0.84460000      -0.00930000
C        1.58120000      -3.23060000      -0.02330000
C        2.40880000      -4.10220000      -0.03200000
H        0.88630000       1.71360000       0.00350000
H       -1.81200000      -0.78130000       0.88590000
H       -1.82160000      -0.77310000      -0.87250000
H        2.06880000      -0.57260000      -0.01380000
H        3.12480000      -4.88730000      -0.03960000
