16
Properties=species:S:1:pos:R:3 gdb_29183=T pbc="F F F"
C       -0.03450000       1.51440000       0.06200000
C       -0.00520000       0.01520000      -0.00280000
C       -0.02210000      -0.67930000      -1.16190000
C        0.00650000      -2.12740000      -1.21560000
N       -0.00920000      -2.79000000      -2.30210000
O        0.05350000      -2.78080000       0.01200000
C        0.07060000      -2.08470000       1.18040000
C        0.04410000      -0.74140000       1.23370000
O        0.06020000      -0.01030000       2.39000000
H        0.84980000       1.89810000       0.58180000
H       -0.07220000       1.94760000      -0.93930000
H       -0.90270000       1.86170000       0.63210000
H       -0.05860000      -0.18070000      -2.12250000
H        0.01690000      -3.79180000      -2.11110000
H        0.10760000      -2.73960000       2.04310000
H        0.09310000      -0.60510000       3.14690000
