21
Properties=species:S:1:pos:R:3 gdb_52683=T pbc="F F F"
C        0.19780000       1.45040000       0.06610000
C        0.07340000       0.00070000       0.01890000
C       -0.02270000      -1.20000000      -0.00400000
C       -0.17760000      -2.65710000      -0.08370000
O       -1.55690000      -3.03670000      -0.09590000
C        0.57670000      -3.22090000      -1.27740000
C        2.01450000      -3.66430000      -1.14240000
C        0.92810000      -4.68700000      -1.37350000
C        0.54730000      -5.69400000      -0.30910000
H        1.24760000       1.75850000       0.00890000
H       -0.33020000       1.92310000      -0.76950000
H       -0.21780000       1.85730000       0.99450000
H        0.21700000      -3.10580000       0.83480000
H       -1.98540000      -2.52670000      -0.79200000
H        0.31270000      -2.73020000      -2.21130000
H        2.70910000      -3.43010000      -1.94140000
H        2.45400000      -3.62270000      -0.14980000
H        0.87720000      -5.08600000      -2.38380000
H        0.70500000      -5.30430000       0.70070000
H       -0.50690000      -5.97660000      -0.39090000
H        1.15370000      -6.60120000      -0.40400000
