18
Properties=species:S:1:pos:R:3 gdb_18404=T pbc="F F F"
C       -0.04200000       1.49480000       0.06880000
C        1.31530000       0.81160000       0.03490000
C        2.16640000       0.76060000       1.28940000
O        2.68320000      -0.53740000       1.55440000
C        1.77790000      -1.38420000       2.23460000
C        0.54890000      -1.80160000       1.42640000
O       -0.32230000      -0.70790000       1.15280000
C        0.04410000       0.00330000       0.00810000
H       -0.35410000       1.92160000       1.01600000
H       -0.38390000       2.03370000      -0.80750000
H        1.87220000       0.85960000      -0.89630000
H        3.03690000       1.41510000       1.17770000
H        1.59020000       1.11570000       2.15600000
H        2.34500000      -2.28260000       2.50560000
H        1.43440000      -0.90340000       3.16570000
H        0.85810000      -2.29210000       0.49260000
H       -0.03030000      -2.52150000       2.01700000
H       -0.22140000      -0.49360000      -0.92570000
