18
Properties=species:S:1:pos:R:3 gdb_110810=T pbc="F F F"
C        0.17190000       0.98350000      -0.34810000
O       -0.43160000      -0.04660000       0.41960000
C        0.43280000      -0.63760000       1.32770000
C        0.10480000      -1.97450000       1.88600000
C       -0.56850000      -2.84090000       0.81470000
C        0.72000000      -2.71280000      -0.07420000
C        0.59580000      -2.22770000      -1.44440000
N        0.51640000      -1.85940000      -2.53770000
C        1.34880000      -1.78260000       0.97850000
H        1.00070000       0.60040000      -0.95550000
H       -0.60080000       1.37740000      -1.01060000
H        0.54100000       1.79350000       0.29800000
H        0.87750000       0.05800000       2.04330000
H        0.05930000      -2.16280000       2.95140000
H       -0.73860000      -3.87200000       1.12560000
H       -1.48210000      -2.42810000       0.38610000
H        1.24870000      -3.66880000      -0.10250000
H        2.40270000      -1.78360000       1.22940000
