17
Properties=species:S:1:pos:R:3 gdb_49232=T pbc="F F F"
O       -0.08330000      -0.02140000      -0.00910000
C       -0.00160000       1.18620000       0.04410000
C        1.25850000       1.93390000       0.01770000
C        1.29530000       3.27550000       0.04510000
C        2.63490000       3.96810000      -0.00320000
C        3.74150000       2.90300000      -0.10160000
C        3.44210000       1.84880000      -1.19080000
C        2.60440000       1.23640000      -0.04460000
O        3.48920000       1.89350000       0.91670000
H       -0.91180000       1.82390000       0.11630000
H        0.38570000       3.86880000       0.10910000
H        2.68010000       4.66430000      -0.85180000
H        2.77450000       4.57570000       0.90070000
H        4.74560000       3.32810000      -0.02880000
H        2.93080000       2.15260000      -2.10630000
H        4.32510000       1.24970000      -1.41690000
H        2.54050000       0.15760000       0.09240000
