17
Properties=species:S:1:pos:R:3 gdb_72387=T pbc="F F F"
O        0.15620000       1.38370000       0.14850000
C        0.07930000      -0.00050000       0.05950000
C        1.06660000      -0.63080000       1.02740000
C        1.01620000      -2.13150000       0.96350000
C        0.16990000      -2.72570000       0.12300000
C       -0.71240000      -1.87640000      -0.73940000
C       -1.35440000      -0.61810000      -0.09520000
O       -1.43530000       0.01670000      -1.43450000
C       -0.08910000      -0.60580000      -1.37790000
H       -0.49500000       1.70950000      -0.49080000
H        2.07420000      -0.25830000       0.79790000
H        0.84730000      -0.27010000       2.04170000
H        1.67760000      -2.69950000       1.61060000
H        0.10070000      -3.80580000       0.04440000
H       -1.38650000      -2.40880000      -1.40950000
H       -2.22840000      -0.54100000       0.55370000
H        0.54720000      -0.51420000      -2.25970000
