15
Properties=species:S:1:pos:R:3 gdb_49157=T pbc="F F F"
O       -0.94570000       1.42530000      -0.05110000
C        0.17100000       1.05970000       0.21820000
C        1.35550000       1.95120000       0.25220000
N        2.54180000       1.47620000       0.36570000
C        3.40790000       2.62150000       0.24950000
C        3.16230000       3.63250000      -0.91410000
C        1.74510000       3.51160000      -1.42620000
N        1.24850000       3.37530000       0.03070000
C        2.61370000       3.86710000       0.46550000
H        0.42320000       0.00620000       0.45360000
H        4.43140000       2.51870000       0.58420000
H        4.01360000       4.08130000      -1.40940000
H        1.36310000       4.44890000      -1.83320000
H        1.46980000       2.68050000      -2.08370000
H        2.73830000       4.64660000       1.20660000
