18
Properties=species:S:1:pos:R:3 gdb_80297=T pbc="F F F"
C        0.26050000       1.58000000       0.01600000
C        0.13880000       0.07540000       0.10220000
C        1.28940000      -0.88150000      -0.14630000
O        2.59930000      -0.34670000      -0.12130000
C        2.92210000       0.09010000       1.14250000
N        4.01060000       0.65150000       1.44220000
C        1.78090000      -0.19730000       2.10410000
C        0.67810000      -0.77170000       1.22950000
O       -0.19660000      -1.71380000       1.76270000
H        1.24280000       1.93890000       0.33180000
H        0.10560000       1.91710000      -1.01380000
H       -0.49240000       2.06570000       0.64520000
H       -0.80150000      -0.32780000      -0.26680000
H        1.19340000      -1.73750000      -0.80280000
H        4.61270000       0.72760000       0.62030000
H        2.10150000      -0.93960000       2.84400000
H        1.50560000       0.70550000       2.65460000
H        0.31630000      -2.47910000       2.04860000
