16
Properties=species:S:1:pos:R:3 gdb_94483=T pbc="F F F"
O       -0.05170000       1.41720000       0.03880000
C       -0.08360000       0.01480000       0.02280000
C       -1.47590000      -0.59690000      -0.23590000
O       -0.96690000      -1.26070000      -1.44180000
C        0.26240000      -0.65160000      -1.29650000
N        1.26920000      -0.61550000      -2.03840000
C        1.21510000      -1.32060000      -3.32460000
C        1.70770000      -0.47890000      -4.41230000
C        2.10230000       0.20290000      -5.31890000
H        0.77370000       1.68910000      -0.37940000
H        0.43860000      -0.42160000       0.88480000
H       -1.84610000      -1.32800000       0.48460000
H       -2.23860000       0.14280000      -0.48610000
H        1.85230000      -2.21170000      -3.24710000
H        0.20370000      -1.67520000      -3.56480000
H        2.45460000       0.80630000      -6.11840000
