17
Properties=species:S:1:pos:R:3 gdb_57024=T pbc="F F F"
C        0.02820000       1.57490000      -0.08940000
C        0.03020000       0.03310000      -0.04210000
C        0.71050000      -0.49950000      -1.22800000
N        1.25340000      -0.86820000      -2.17870000
C        0.68350000      -0.49450000       1.24690000
C       -0.05780000      -0.22680000       2.57700000
O       -0.17410000      -1.66210000       2.81000000
C        0.44740000      -1.95230000       1.61010000
N        0.68970000      -3.04480000       1.05270000
H        1.04990000       1.96400000      -0.06580000
H       -0.45200000       1.93260000      -1.00280000
H       -0.51780000       1.97900000       0.76770000
H       -1.00640000      -0.32580000      -0.07420000
H        1.74090000      -0.21980000       1.27080000
H        0.51730000       0.25780000       3.36870000
H       -1.04620000       0.23360000       2.48920000
H        0.36010000      -3.83770000       1.60540000
