21
Properties=species:S:1:pos:R:3 gdb_72699=T pbc="F F F"
C       -0.08990000       1.46120000       0.12320000
C       -0.02700000      -0.06700000       0.02440000
C        1.26850000      -0.43660000      -0.76830000
O        2.00540000      -0.52950000       0.50360000
C        0.74200000      -0.76790000       1.14080000
C       -0.07980000      -0.46120000       2.41100000
C       -1.09310000      -1.40620000       1.61940000
C        0.16220000      -2.20520000       1.19900000
C       -1.41960000      -0.72640000       0.24260000
H        0.89440000       1.88230000       0.35050000
H       -0.42480000       1.87770000      -0.83430000
H       -0.79350000       1.80410000       0.88680000
H        1.26390000      -1.39990000      -1.28960000
H        1.68960000       0.33950000      -1.41270000
H        0.25550000      -0.95960000       3.32300000
H       -0.35320000       0.57360000       2.61940000
H       -1.91380000      -1.87560000       2.16000000
H        0.10770000      -2.79840000       0.28300000
H        0.60660000      -2.78860000       2.00790000
H       -2.21920000       0.01770000       0.28500000
H       -1.70830000      -1.48460000      -0.49130000
