19
Properties=species:S:1:pos:R:3 gdb_86597=T pbc="F F F"
C        0.37520000       1.59430000      -0.01490000
C        0.04310000       0.13250000       0.22450000
O        0.69030000      -0.77910000      -0.69800000
C        1.31310000      -1.57740000       0.34480000
C        2.79940000      -1.71530000       0.22000000
C        3.49290000      -2.85890000       0.92250000
C        3.38570000      -2.85630000      -0.57780000
C        0.74740000      -0.58870000       1.38350000
O        0.85610000      -0.42110000       2.55950000
H        1.45610000       1.75870000       0.00160000
H       -0.00920000       1.91540000      -0.98740000
H       -0.08580000       2.21150000       0.76240000
H       -1.04590000      -0.02320000       0.23720000
H        0.84230000      -2.57010000       0.41870000
H        3.33390000      -0.77100000       0.18170000
H        4.45600000      -2.65890000       1.37710000
H        2.87940000      -3.55990000       1.47830000
H        2.69650000      -3.55300000      -1.04280000
H        4.27750000      -2.65670000      -1.16070000
