16
Properties=species:S:1:pos:R:3 gdb_27104=T pbc="F F F"
C       -0.50490000       1.28970000      -0.21690000
C       -0.00510000      -0.11270000      -0.04930000
C        0.37800000      -1.00440000      -1.00840000
N        0.42730000      -0.98210000      -2.40220000
C       -0.54070000      -0.50220000      -3.24580000
O       -1.57060000       0.03650000      -2.91250000
O        0.82650000      -2.16890000      -0.45930000
C        0.72950000      -2.02230000       0.89280000
C        0.22070000      -0.80330000       1.19370000
H       -0.99730000       1.63040000       0.69810000
H        0.31580000       1.98740000      -0.42450000
H       -1.21550000       1.35350000      -1.04340000
H        1.19930000      -1.47590000      -2.82700000
H       -0.24850000      -0.65540000      -4.30260000
H        1.06390000      -2.86250000       1.47750000
H        0.02860000      -0.41250000       2.18140000
