17
Properties=species:S:1:pos:R:3 gdb_100577=T pbc="F F F"
O        0.46630000       0.18490000       1.02790000
C       -0.04540000       0.13000000      -0.29260000
C       -1.47880000      -0.45310000      -0.39260000
O       -1.97040000      -0.21630000      -1.68150000
C       -1.50350000      -1.95960000      -0.10290000
O       -1.75970000      -2.72050000      -1.00780000
C       -1.20410000      -2.40990000       1.32250000
C       -1.10510000      -3.84830000       1.49770000
C       -1.01560000      -5.03520000       1.65260000
H        0.01170000       0.89070000       1.49890000
H       -0.07390000       1.11900000      -0.76640000
H        0.64370000      -0.49330000      -0.87120000
H       -2.10700000       0.05880000       0.35670000
H       -2.08960000      -1.09840000      -2.07250000
H       -0.29320000      -1.89050000       1.64850000
H       -2.00130000      -1.99620000       1.95820000
H       -0.93750000      -6.08610000       1.78300000
