16
Properties=species:S:1:pos:R:3 gdb_23589=T pbc="F F F"
O       -0.14240000       1.34060000       0.02950000
N        0.03020000      -0.05990000       0.01360000
C       -1.08470000      -0.66210000       0.00550000
C       -1.31460000      -2.12640000      -0.00140000
C       -2.62000000      -2.31830000       0.80780000
C       -3.06250000      -0.92880000       1.27030000
C       -2.53690000      -0.18490000       0.01720000
O       -3.10050000      -0.94660000      -1.06780000
C       -2.66720000      -2.24230000      -0.69020000
H        0.76800000       1.65470000       0.00770000
H       -0.53060000      -2.86520000      -0.06610000
H       -2.81840000      -3.22660000       1.35930000
H       -4.14750000      -0.84260000       1.37460000
H       -2.57120000      -0.59480000       2.18750000
H       -2.73700000       0.87320000      -0.10510000
H       -2.95390000      -3.03440000      -1.36640000
