18
Properties=species:S:1:pos:R:3 gdb_28337=T pbc="F F F"
C       -0.01430000       1.53250000       0.05920000
C       -0.00580000       0.03820000      -0.06500000
C       -0.08580000      -0.64890000      -1.23900000
C       -0.06670000      -2.07240000      -1.21240000
C        0.02920000      -2.78520000      -0.05280000
C        0.05260000      -4.28300000       0.01740000
C        0.11640000      -2.07680000       1.21850000
O        0.20580000      -2.59270000       2.32420000
N        0.09020000      -0.67820000       1.09670000
H        0.90390000       1.89650000       0.53540000
H       -0.09540000       1.99780000      -0.92440000
H       -0.85770000       1.87520000       0.67060000
H       -0.16270000      -0.11170000      -2.17490000
H       -0.13120000      -2.60830000      -2.15610000
H        0.97040000      -4.63560000       0.50060000
H       -0.77360000      -4.65660000       0.63230000
H       -0.01720000      -4.72920000      -0.97790000
H        0.15120000      -0.19490000       1.98320000
