18
Properties=species:S:1:pos:R:3 gdb_7660=T pbc="F F F"
C       -0.13620000       1.54750000      -0.08330000
C        0.02820000       0.03250000      -0.06820000
O       -1.24800000      -0.53590000      -0.39540000
C        1.29820000      -0.64610000      -0.69670000
C        2.07490000      -0.16440000       0.56180000
C        0.72400000      -0.69820000       1.12050000
C        0.97000000      -1.92530000       0.16210000
O       -0.01690000      -2.83710000      -0.17780000
H       -0.42390000       1.88360000      -1.08820000
H       -0.93680000       1.83660000       0.60420000
H        0.76730000       2.09180000       0.19050000
H       -1.55460000      -0.13040000      -1.21370000
H        1.62890000      -0.60070000      -1.73640000
H        2.95660000      -0.75190000       0.82510000
H        2.27770000       0.89970000       0.65810000
H        0.39420000      -0.71220000       2.16060000
H        1.85660000      -2.50850000       0.42550000
H       -0.80960000      -2.31780000      -0.37590000
