19
Properties=species:S:1:pos:R:3 gdb_87367=T pbc="F F F"
C        0.02050000       1.50870000      -0.20420000
C        0.09560000       0.00750000      -0.04150000
C        1.39060000      -0.72300000      -0.16040000
C        0.71550000      -0.62660000       1.19640000
C        1.21810000      -0.00080000       2.50660000
O        0.66250000       1.27430000       2.75250000
C        0.57410000      -1.19320000       3.29680000
C        0.14300000      -1.79020000       1.94130000
O       -0.40990000      -2.80180000       1.60620000
H        0.91290000       1.99810000       0.19190000
H       -0.07450000       1.76540000      -1.26520000
H       -0.84050000       1.92190000       0.32780000
H       -0.77810000      -0.53800000      -0.39150000
H        1.40740000      -1.70660000      -0.61860000
H        2.29440000      -0.13460000      -0.28960000
H        2.31310000       0.02460000       2.58440000
H        0.98000000       1.57860000       3.60880000
H        1.24660000      -1.82030000       3.88820000
H       -0.27200000      -0.87990000       3.91570000
