20
Properties=species:S:1:pos:R:3 gdb_102769=T pbc="F F F"
C       -0.46720000       1.61050000       0.31230000
C       -0.27040000       0.10380000       0.13730000
C        0.58340000      -0.25010000      -1.08710000
O        1.87850000       0.34800000      -0.87110000
C        2.69990000       0.40720000      -1.93810000
N        3.85070000       0.91150000      -1.81760000
C        0.68960000      -1.69360000      -1.29710000
C        0.77600000      -2.88320000      -1.46290000
C        0.88590000      -4.32080000      -1.66040000
H        0.49340000       2.11730000       0.42890000
H       -0.97830000       2.04740000      -0.55330000
H       -1.07530000       1.81880000       1.19730000
H        0.21420000      -0.32770000       1.01940000
H       -1.23430000      -0.40310000       0.02290000
H        0.13410000       0.21480000      -1.97810000
H        2.26290000      -0.00960000      -2.85500000
H        4.33300000       0.88770000      -2.71380000
H        0.62160000      -4.60490000      -2.68470000
H        1.90890000      -4.66420000      -1.47230000
H        0.22270000      -4.86600000      -0.98020000
