20
Properties=species:S:1:pos:R:3 gdb_103619=T pbc="F F F"
C        0.05520000       1.39690000       0.13830000
O       -0.00820000       0.00130000      -0.12500000
C       -1.30020000      -0.56170000      -0.07890000
C       -2.23380000      -0.04810000      -1.16720000
C       -1.18860000      -2.11100000       0.06210000
N       -1.82830000      -1.98070000       1.37400000
C       -2.14870000      -2.94730000       2.39070000
C       -1.91970000      -0.61580000       1.35800000
O       -2.31690000       0.18370000       2.17070000
H        1.11540000       1.64260000       0.23280000
H       -0.36810000       1.99030000      -0.68350000
H       -0.46360000       1.65480000       1.06820000
H       -1.76190000      -0.15020000      -2.14960000
H       -3.17120000      -0.61210000      -1.16650000
H       -2.48290000       1.00430000      -1.00620000
H       -1.76240000      -2.70150000      -0.66090000
H       -0.15240000      -2.46050000       0.10180000
H       -1.25390000      -3.48120000       2.73420000
H       -2.58370000      -2.40790000       3.23550000
H       -2.87470000      -3.68550000       2.02890000
