16
Properties=species:S:1:pos:R:3 gdb_67314=T pbc="F F F"
C       -0.05680000       1.48330000       0.02120000
C       -0.05890000      -0.01510000       0.00460000
C        0.83260000      -0.98040000      -0.85040000
O        1.94250000      -0.96860000       0.09060000
C        0.75030000      -0.99160000       0.92940000
C       -0.04110000      -1.95330000      -0.00540000
C       -1.26460000      -1.00250000      -0.07570000
C       -2.19400000      -1.00920000       1.04270000
N       -2.91900000      -1.00320000       1.94390000
H        0.97270000       1.84850000       0.09150000
H       -0.50570000       1.89230000      -0.88980000
H       -0.61930000       1.86700000       0.87810000
H        1.04330000      -0.97700000      -1.91930000
H        0.86410000      -1.00060000       2.01180000
H       -0.02150000      -3.04110000      -0.00910000
H       -1.81160000      -1.00300000      -1.02310000
