20
Properties=species:S:1:pos:R:3 gdb_100894=T pbc="F F F"
C        0.06650000       1.42620000       0.20330000
N       -0.08680000      -0.00290000      -0.07020000
C        0.63700000      -0.47910000      -1.24620000
C        2.10550000      -0.38940000      -1.07810000
N        3.24370000      -0.31590000      -0.88550000
C        0.18780000      -1.92640000      -1.59070000
N       -1.25130000      -2.03190000      -1.82270000
C        0.90180000      -2.51090000      -2.81560000
O        0.46500000      -3.82670000      -3.06060000
H        1.11120000       1.74890000       0.32960000
H       -0.37080000       2.00040000      -0.62050000
H       -0.48570000       1.67370000       1.11350000
H        0.21480000      -0.53780000       0.73910000
H        0.36410000       0.17180000      -2.08800000
H        0.42710000      -2.56500000      -0.73010000
H       -1.75070000      -1.68930000      -1.00750000
H       -1.51880000      -1.42250000      -2.59380000
H        0.71500000      -1.85120000      -3.68480000
H        1.98350000      -2.54160000      -2.65680000
H       -0.48610000      -3.81620000      -2.88080000
