17
Properties=species:S:1:pos:R:3 gdb_51925=T pbc="F F F"
O       -0.49410000       0.34280000       0.48060000
C       -0.22980000       1.40630000      -0.01530000
C        1.13330000       2.06180000       0.01390000
C        1.59450000       2.48180000      -1.40210000
C        2.84840000       3.22250000      -1.38980000
C        3.88220000       3.84000000      -1.35580000
C        5.12840000       4.55490000      -1.30150000
C        5.51950000       5.52030000      -2.34840000
O        5.07190000       5.97460000      -1.07850000
H       -1.01120000       2.00050000      -0.54720000
H        1.05830000       2.96210000       0.63820000
H        1.84910000       1.38200000       0.48130000
H        1.70140000       1.58810000      -2.03020000
H        0.81390000       3.09350000      -1.87390000
H        5.92810000       4.05920000      -0.75210000
H        6.57720000       5.67130000      -2.56070000
H        4.83920000       5.69870000      -3.17890000
