16
Properties=species:S:1:pos:R:3 gdb_25634=T pbc="F F F"
C       -0.00840000       1.45360000       0.05290000
C        0.00930000      -0.00100000       0.05290000
C       -0.00070000      -1.20890000       0.05440000
C        0.03080000      -2.62170000       0.05240000
C        1.16010000      -3.40360000      -0.11150000
N        2.49040000      -3.08030000      -0.38360000
N        0.72080000      -4.70180000      -0.04770000
C       -0.63990000      -4.66050000       0.14810000
N       -1.08670000      -3.43690000       0.20800000
H        0.62430000       1.86780000       0.84680000
H        0.34450000       1.86410000      -0.90060000
H       -1.02520000       1.82840000       0.21500000
H        2.58160000      -2.07460000      -0.47790000
H        3.13360000      -3.39420000       0.33700000
H        1.28810000      -5.51810000      -0.20540000
H       -1.22910000      -5.55940000       0.25000000
