18
Properties=species:S:1:pos:R:3 gdb_125249=T pbc="F F F"
C        0.14310000       1.48680000       0.35590000
C       -0.07950000       0.04830000       0.04880000
C       -1.09960000      -0.81590000       0.29140000
C       -0.65740000      -2.04810000      -0.27600000
C       -1.38260000      -3.35910000      -0.30400000
C       -0.61760000      -4.48210000      -0.99550000
O       -1.44340000      -5.63660000      -0.93010000
N        0.53320000      -1.92190000      -0.81320000
O        0.90490000      -0.59170000      -0.60950000
H        1.03460000       1.62110000       0.97730000
H        0.29230000       2.06480000      -0.56190000
H       -0.71690000       1.89630000       0.88880000
H       -2.02930000      -0.61340000       0.79740000
H       -1.61540000      -3.66940000       0.72210000
H       -2.35040000      -3.23030000      -0.80420000
H       -0.39670000      -4.19800000      -2.03400000
H        0.34600000      -4.64180000      -0.49160000
H       -0.97880000      -6.35900000      -1.36170000
