15
Properties=species:S:1:pos:R:3 gdb_27582=T pbc="F F F"
N       -0.01840000       1.40770000       0.14490000
C        0.00410000       0.02150000       0.04810000
C       -1.18700000      -0.71320000       0.03840000
C       -1.15510000      -2.11040000       0.00160000
C        0.06350000      -2.80030000      -0.02720000
C        1.24370000      -2.06570000      -0.01910000
C        1.22170000      -0.67730000       0.01740000
C       -2.38740000      -2.83890000      -0.01040000
N       -3.38410000      -3.42810000      -0.02140000
H        0.80490000       1.88110000      -0.19550000
H       -0.86840000       1.85340000      -0.16620000
H       -2.14270000      -0.20090000       0.06270000
H        0.07370000      -3.88220000      -0.05710000
H        2.19740000      -2.58180000      -0.04350000
H        2.15380000      -0.12030000       0.02600000
