17
Properties=species:S:1:pos:R:3 gdb_35534=T pbc="F F F"
C       -0.09210000      -1.23980000      -0.17700000
C       -0.04100000      -0.04220000      -0.08390000
C        0.02980000       1.40670000       0.04540000
C       -0.59680000       1.94930000       1.39090000
C        0.18040000       3.25530000       1.59880000
O        0.92320000       3.54000000       2.83560000
C        2.17150000       3.66760000       2.08510000
C        1.48580000       2.99930000       0.92110000
C        1.47590000       1.94310000       0.12110000
H       -0.14220000      -2.29680000      -0.26360000
H       -0.50540000       1.85020000      -0.80720000
H       -1.68230000       2.06050000       1.33300000
H       -0.35360000       1.25110000       2.19610000
H       -0.38640000       4.14880000       1.30440000
H        2.44130000       4.72290000       1.94830000
H        3.00440000       3.13070000       2.55040000
H        2.30860000       1.42170000      -0.33240000
