15
Properties=species:S:1:pos:R:3 gdb_93620=T pbc="F F F"
O        0.33280000       1.20510000       0.63620000
C        0.07090000      -0.07200000       0.13990000
C       -1.41150000      -0.46900000       0.04660000
N       -1.45250000      -1.56830000      -0.93840000
C       -0.42980000      -1.29560000      -1.95510000
C       -1.00650000      -0.78190000      -3.20590000
N       -1.45680000      -0.36770000      -4.18550000
C        0.51330000      -0.23470000      -1.31140000
O        1.37710000       0.40230000      -1.84490000
H        1.03300000       1.58380000       0.08470000
H        0.59970000      -0.85140000       0.72260000
H       -1.83910000      -0.79700000       0.99440000
H       -1.99540000       0.38520000      -0.31530000
H       -1.26660000      -2.45720000      -0.49190000
H        0.15330000      -2.19110000      -2.19770000
