17
Properties=species:S:1:pos:R:3 gdb_52817=T pbc="F F F"
C       -0.01690000       1.50560000      -0.05680000
C        0.01930000       0.05210000       0.00320000
C        0.04460000      -1.15060000       0.07070000
C        0.07810000      -2.60390000       0.09230000
O        1.03440000      -3.13630000      -0.81280000
C        0.26330000      -3.33530000       1.47560000
C       -1.08830000      -4.01930000       1.24820000
O       -2.06890000      -2.97840000       1.11460000
C       -1.29710000      -3.32900000      -0.02960000
H        0.98460000       1.92210000      -0.21080000
H       -0.65390000       1.85620000      -0.87620000
H       -0.41220000       1.92660000       0.87410000
H        0.97480000      -2.62480000      -1.62720000
H        1.11870000      -4.01010000       1.41010000
H        0.33160000      -2.70360000       2.36210000
H       -1.43570000      -4.98560000       1.59270000
H       -1.81350000      -3.61710000      -0.93880000
