19
Properties=species:S:1:pos:R:3 gdb_12013=T pbc="F F F"
C       -0.01850000       1.54370000      -0.01270000
C        0.04420000       0.01630000      -0.01860000
O       -1.27740000      -0.53550000       0.03390000
C        0.83480000      -0.58410000      -1.20820000
C        1.35830000      -1.92840000      -0.65510000
N        1.50320000      -1.79280000       0.80880000
C        2.23240000      -0.58400000       1.21500000
C        0.74820000      -0.58590000       1.19080000
H        0.98210000       1.98430000       0.01890000
H       -0.51910000       1.91620000      -0.91500000
H       -0.58210000       1.89640000       0.85600000
H       -1.78160000      -0.15590000      -0.69370000
H        0.19000000      -0.71390000      -2.08170000
H        1.65140000       0.08040000      -1.50670000
H        0.62560000      -2.72190000      -0.82960000
H        2.30720000      -2.23920000      -1.10290000
H        2.75070000      -0.66940000       2.16550000
H        2.77140000      -0.01040000       0.46450000
H        0.17250000      -0.62890000       2.11050000
