20
Properties=species:S:1:pos:R:3 gdb_120998=T pbc="F F F"
O        0.01300000       1.33750000       0.17420000
C       -0.04660000      -0.08160000       0.15170000
C       -1.44930000      -0.60430000      -0.16780000
C       -1.51000000      -2.11570000      -0.22050000
O       -1.11380000      -2.76040000       1.03240000
C       -2.28250000      -3.59860000       1.03450000
C       -3.45270000      -3.03900000       1.86870000
N       -3.85250000      -2.16930000       0.72120000
C       -2.87610000      -2.83780000      -0.17480000
H       -0.55450000       1.63910000       0.89070000
H        0.66100000      -0.39220000      -0.62560000
H        0.30030000      -0.51660000       1.09980000
H       -2.16590000      -0.25640000       0.58480000
H       -1.77110000      -0.20040000      -1.13630000
H       -0.88010000      -2.50400000      -1.03550000
H       -2.04320000      -4.66250000       1.09530000
H       -4.19110000      -3.80880000       2.12720000
H       -3.17090000      -2.48900000       2.77220000
H       -4.81510000      -2.29190000       0.43370000
H       -3.26580000      -3.27910000      -1.09310000
