16
Properties=species:S:1:pos:R:3 gdb_24568=T pbc="F F F"
O       -0.04820000       1.26990000      -0.25510000
C        0.94750000       2.17500000       0.01170000
C        2.21660000       2.16980000      -0.39800000
C        2.97030000       1.13320000      -1.09090000
C        3.34620000      -0.05800000      -0.58750000
N        3.17470000      -0.53110000       0.69180000
C        2.06290000      -0.79130000       1.26430000
C        0.71270000      -0.87200000       0.70990000
C       -0.09300000      -0.04440000       0.02870000
H        0.52000000       3.05400000       0.48360000
H        2.74010000       3.10780000      -0.21190000
H        3.41750000       1.42180000      -2.03970000
H        4.02750000      -0.67050000      -1.17640000
H        2.14620000      -1.16180000       2.29110000
H        0.23800000      -1.83040000       0.91820000
H       -1.05310000      -0.42120000      -0.31190000
