19
Properties=species:S:1:pos:R:3 gdb_50579=T pbc="F F F"
O       -0.28270000       0.07770000      -0.06150000
C       -0.07960000       1.26120000       0.01730000
C        1.28190000       1.92150000      -0.01960000
C        1.40130000       2.80700000      -1.27870000
C        2.80960000       3.40680000      -1.39070000
C        3.22550000       4.11930000      -0.12490000
O        2.25000000       4.98910000       0.45680000
C        2.59330000       3.78820000       1.16280000
C        1.49910000       2.74160000       1.27330000
H       -0.92570000       1.98360000       0.12090000
H        2.02600000       1.11940000      -0.07890000
H        1.18230000       2.21360000      -2.17220000
H        0.66350000       3.61550000      -1.23350000
H        3.54180000       2.61520000      -1.59810000
H        2.85540000       4.10560000      -2.23440000
H        4.24070000       4.51850000      -0.11650000
H        3.15830000       3.97110000       2.07710000
H        0.57080000       3.26050000       1.54860000
H        1.73160000       2.06140000       2.09940000
