22
Properties=species:S:1:pos:R:3 gdb_64261=T pbc="F F F"
C       -0.22160000       1.59570000       0.09330000
C        0.00000000       0.07830000      -0.00470000
C       -1.36370000      -0.62120000       0.07750000
C        0.70700000      -0.31180000      -1.34540000
O        2.12770000      -0.41890000      -1.23340000
C        2.56630000      -0.85140000       0.04860000
C        1.48690000      -1.68900000       0.76490000
N        0.81770000      -0.38690000       1.15750000
C        2.20500000       0.22190000       1.08630000
H        0.66650000       2.17050000      -0.18040000
H       -1.02520000       1.89850000      -0.58510000
H       -0.51100000       1.86900000       1.11250000
H       -1.97640000      -0.37830000      -0.79760000
H       -1.25780000      -1.70940000       0.11950000
H       -1.89790000      -0.29960000       0.97560000
H        0.30250000      -1.26740000      -1.70870000
H        0.51560000       0.43450000      -2.12270000
H        3.59110000      -1.21380000      -0.06960000
H        0.88640000      -2.39370000       0.18710000
H        1.86790000      -2.19000000       1.65890000
H        2.70160000       0.09270000       2.05310000
H        2.27090000       1.26330000       0.77290000
