15
Properties=species:S:1:pos:R:3 gdb_127040=T pbc="F F F"
C        0.06240000       1.51490000      -0.14310000
C        0.01180000       0.00850000      -0.00600000
O        0.66500000      -0.55470000      -1.17580000
C        0.71180000      -1.86110000      -1.22220000
N        0.25580000      -2.70860000      -0.36870000
O        0.60230000      -3.97150000      -0.96100000
C        1.24650000      -3.74440000      -2.13800000
N        1.71740000      -4.55230000      -2.96960000
O        1.31850000      -2.37710000      -2.30910000
H        1.09590000       1.86790000      -0.18980000
H       -0.45960000       1.84230000      -1.04590000
H       -0.42190000       1.97440000       0.72320000
H        0.53930000      -0.34810000       0.88410000
H       -1.01310000      -0.37370000       0.02960000
H        1.56770000      -5.51220000      -2.66940000
