16
Properties=species:S:1:pos:R:3 gdb_53803=T pbc="F F F"
C        0.07130000       1.49650000       0.01050000
C        0.06250000      -0.01200000      -0.04120000
C        0.81360000      -0.75930000      -1.05650000
O        1.28780000      -0.68470000       0.29650000
C       -1.11200000      -0.75850000       0.57140000
O       -1.73840000      -1.60250000      -0.02770000
C       -1.44660000      -0.46240000       2.05550000
N       -2.45980000      -1.23580000       2.50200000
O       -0.84690000       0.37060000       2.70700000
H        0.97860000       1.87270000      -0.46930000
H       -0.79500000       1.90300000      -0.52360000
H        0.03890000       1.83990000       1.04470000
H        0.46090000      -1.73610000      -1.37700000
H        1.40570000      -0.20420000      -1.78170000
H       -2.86480000      -1.91750000       1.88120000
H       -2.75370000      -1.16840000       3.46150000
