15
Properties=species:S:1:pos:R:3 gdb_7925=T pbc="F F F"
C       -0.21700000       1.54620000       0.02800000
C        0.06570000       0.04570000      -0.02380000
C        0.94080000      -0.44550000      -1.18660000
C        1.80730000      -1.53390000      -0.57770000
O        2.49510000      -2.34810000      -1.10750000
O        1.71820000      -1.44800000       0.80250000
C        0.81650000      -0.46790000       1.19180000
N        0.65640000      -0.09510000       2.38050000
H        0.71590000       2.11890000       0.02570000
H       -0.81330000       1.85690000      -0.83460000
H       -0.76120000       1.79540000       0.94100000
H       -0.88940000      -0.49520000      -0.04580000
H        0.39520000      -0.83520000      -2.04690000
H        1.60830000       0.34390000      -1.55240000
H        1.27220000      -0.60320000       3.01680000
