15
Properties=species:S:1:pos:R:3 gdb_7684=T pbc="F F F"
C        0.03170000       1.55600000       0.06980000
C        0.07410000       0.04650000       0.05410000
O       -1.11040000      -0.55660000      -0.39320000
C        1.30670000      -0.77970000      -0.22400000
N        2.52070000      -0.21270000       0.36040000
C        1.95760000      -0.15650000       1.65170000
O        2.37670000       0.28560000       2.68310000
C        0.67550000      -0.81560000       1.16740000
H        0.95830000       1.99200000       0.44780000
H       -0.13310000       1.94190000      -0.94420000
H       -0.79170000       1.89880000       0.70280000
H       -1.30960000      -0.20520000      -1.26860000
H        1.34560000      -1.57740000      -0.95430000
H        3.06080000       0.54360000      -0.04480000
H        0.09020000      -1.58910000       1.64240000
