19
Properties=species:S:1:pos:R:3 gdb_75094=T pbc="F F F"
C        0.53160000       1.55830000      -0.13180000
C        0.04890000       0.13580000      -0.06920000
C       -0.17380000      -0.60180000      -1.15620000
C       -0.65020000      -2.03420000      -1.11440000
C        0.38430000      -2.98520000      -0.51200000
O        0.79550000      -3.94510000      -1.13280000
C        0.84360000      -2.74340000       0.87670000
C        0.58340000      -1.68860000       1.66060000
C       -0.18820000      -0.43610000       1.32190000
H        1.49360000       1.67220000       0.38470000
H        0.65640000       1.89690000      -1.16340000
H       -0.17140000       2.23790000       0.36760000
H        0.01590000      -0.17930000      -2.13900000
H       -1.56350000      -2.11030000      -0.50460000
H       -0.88700000      -2.40740000      -2.11190000
H        1.45110000      -3.55670000       1.26510000
H        0.97530000      -1.72170000       2.67580000
H        0.03970000       0.32410000       2.07470000
H       -1.26480000      -0.64550000       1.44260000
