17
Properties=species:S:1:pos:R:3 gdb_85987=T pbc="F F F"
C       -0.44190000       1.82120000       0.44650000
C       -0.05250000       0.38920000       0.08810000
C        0.74960000       0.09910000      -1.21750000
C        1.75610000      -0.79010000      -0.43670000
O        3.10900000      -0.60330000      -0.74070000
C        1.21100000      -0.14900000       0.84610000
O        1.66570000       0.07280000       1.92820000
C       -1.20800000      -0.57230000       0.28870000
O       -1.41710000      -1.54890000      -0.38560000
H        0.43080000       2.47830000       0.41560000
H       -1.19190000       2.21210000      -0.24860000
H       -0.85500000       1.86570000       1.45910000
H        0.18900000      -0.40410000      -2.00390000
H        1.24230000       0.99610000      -1.59680000
H        1.44390000      -1.84530000      -0.48970000
H        3.63140000      -0.96240000      -0.01470000
H       -1.86290000      -0.31600000       1.15040000
