12
Properties=species:S:1:pos:R:3 gdb_9571=T pbc="F F F"
C       -0.06690000       1.54520000      -0.05270000
C       -0.03180000       0.03970000       0.05900000
O        1.22370000      -0.60580000      -0.16300000
C        0.68660000      -0.67250000       1.15520000
C        1.37300000       0.07400000       2.18670000
N        1.90600000       0.66080000       3.02730000
C       -1.17290000      -0.65860000      -0.51590000
N       -2.09360000      -1.18820000      -0.97010000
H        0.80130000       1.98000000       0.44520000
H       -0.05760000       1.83680000      -1.10620000
H       -0.97840000       1.93740000       0.40650000
H        0.33100000      -1.65350000       1.46370000
