21
Properties=species:S:1:pos:R:3 gdb_95454=T pbc="F F F"
O        0.08710000       1.40180000       0.25630000
C        0.04340000       0.00810000      -0.08140000
C        0.81020000      -0.89360000       0.91660000
C       -0.26790000      -1.54450000       1.81670000
C       -1.53260000      -1.34120000       1.02210000
C       -1.37800000      -0.53690000      -0.03750000
C       -2.43450000      -0.15830000      -0.99670000
C       -2.49010000       1.22410000      -1.62650000
C       -2.13950000       0.03780000      -2.47480000
H       -0.46070000       1.52000000       1.04070000
H        0.49220000      -0.03100000      -1.07880000
H        1.34650000      -1.67150000       0.36420000
H        1.55280000      -0.30840000       1.46430000
H       -0.06040000      -2.60420000       2.00590000
H       -0.33530000      -1.07270000       2.80720000
H       -2.47360000      -1.80520000       1.30220000
H       -3.39870000      -0.60920000      -0.77890000
H       -3.46870000       1.67540000      -1.74950000
H       -1.69620000       1.91140000      -1.36190000
H       -1.11350000      -0.06680000      -2.80870000
H       -2.87410000      -0.33480000      -3.18020000
