19
Properties=species:S:1:pos:R:3 gdb_77706=T pbc="F F F"
O        0.34740000       1.09690000      -0.35720000
C        0.14560000      -0.27190000      -0.13380000
C        0.23410000      -0.80680000       1.29840000
C        1.35200000      -1.42180000       2.06020000
C        0.74930000      -0.09410000       2.50710000
O       -1.07580000      -1.38420000       1.24080000
C       -1.28850000      -0.80260000      -0.05110000
C       -2.54810000      -0.08510000      -0.41550000
C       -2.18080000      -1.41210000      -1.07120000
H       -0.20650000       1.57730000       0.26920000
H        0.78110000      -0.79560000      -0.85230000
H        1.11810000      -2.29740000       2.65620000
H        2.34310000      -1.42190000       1.61780000
H        1.32660000       0.81270000       2.35600000
H        0.12520000      -0.10400000       3.39410000
H       -3.35380000      -0.09450000       0.31050000
H       -2.46460000       0.82310000      -1.00430000
H       -1.86060000      -1.41050000      -2.10820000
H       -2.74710000      -2.28690000      -0.76970000
