22
Properties=species:S:1:pos:R:3 gdb_68844=T pbc="F F F"
C       -0.07410000       1.52700000      -0.00050000
C       -0.02810000       0.01940000       0.06980000
C        1.25990000      -0.72130000      -0.22730000
C        0.67350000      -0.76660000       1.16700000
C        1.40380000      -0.15130000       2.33770000
C       -0.18120000      -1.98010000       1.41480000
C       -1.55080000      -1.74140000       1.93340000
N       -1.34160000      -1.99750000       0.50000000
C       -1.29650000      -0.75400000      -0.30620000
H        0.86730000       1.97930000       0.32600000
H       -0.25580000       1.86460000      -1.02790000
H       -0.87690000       1.93390000       0.62580000
H        1.21970000      -1.61560000      -0.84310000
H        2.15430000      -0.12140000      -0.36710000
H        1.94230000       0.75520000       2.04590000
H        0.71370000       0.11070000       3.14750000
H        2.14240000      -0.85040000       2.74710000
H        0.30860000      -2.93730000       1.58420000
H       -2.08380000      -2.52500000       2.46430000
H       -1.80330000      -0.72800000       2.24160000
H       -2.19730000      -0.15520000      -0.12280000
H       -1.30120000      -1.03170000      -1.36720000
