18
Properties=species:S:1:pos:R:3 gdb_12095=T pbc="F F F"
C       -0.52290000      -2.32230000       3.03360000
C       -0.07090000      -1.95870000       1.64280000
O       -0.67920000      -0.82210000       1.01840000
C        0.71600000      -0.75500000       1.31960000
C        1.16720000       0.27180000       2.33800000
C        0.15510000       1.31450000       2.75280000
C        2.31320000      -0.05720000       3.20420000
O        2.48220000       0.77760000       2.05860000
H       -0.54980000      -1.45310000       3.69390000
H       -1.52450000      -2.76360000       3.00540000
H        0.15640000      -3.06410000       3.46780000
H        0.04120000      -2.80930000       0.96690000
H        1.37260000      -0.78920000       0.44900000
H       -0.72230000       0.85510000       3.21420000
H        0.60830000       2.01500000       3.45840000
H       -0.19260000       1.87280000       1.87840000
H        2.42160000       0.43910000       4.16850000
H        2.77620000      -1.04150000       3.13750000
