21
Properties=species:S:1:pos:R:3 gdb_99849=T pbc="F F F"
C        0.08700000       1.54650000      -0.06070000
C        0.02490000       0.01820000       0.08370000
N        0.63100000      -0.48700000       1.31980000
C       -1.42990000      -0.54980000      -0.04150000
N       -2.16570000      -0.10080000      -1.23310000
C       -1.40260000      -2.11360000      -0.08510000
N       -2.69640000      -2.76860000      -0.09330000
C       -2.19800000      -0.12580000       1.14410000
N       -2.75960000       0.20830000       2.09800000
H        1.12340000       1.88470000       0.03550000
H       -0.28180000       1.89180000      -1.03160000
H       -0.50020000       2.03620000       0.72460000
H        0.57970000      -0.43530000      -0.74930000
H        1.61970000      -0.25690000       1.33750000
H        0.21270000      -0.02130000       2.12200000
H       -2.34140000       0.89800000      -1.20540000
H       -1.60170000      -0.28550000      -2.05870000
H       -0.86390000      -2.37680000      -1.00620000
H       -0.80280000      -2.47290000       0.75160000
H       -3.14310000      -2.66830000       0.81350000
H       -3.29940000      -2.30180000      -0.76580000
