20
Properties=species:S:1:pos:R:3 gdb_68608=T pbc="F F F"
O       -0.16510000       1.36720000       0.05670000
C       -0.02440000      -0.01660000       0.00540000
C        0.33240000      -0.81510000      -1.29700000
C       -0.41270000      -1.96010000      -0.54410000
C        0.52510000      -2.21670000       0.65890000
C        0.82330000      -0.73600000       1.07500000
C       -1.31220000      -0.84610000       0.01360000
C       -2.49900000      -0.77410000       0.87630000
N       -2.56730000      -0.41700000      -0.57080000
H        0.70660000       1.77040000       0.12160000
H       -0.22370000      -0.45020000      -2.16150000
H        1.38910000      -0.96500000      -1.53950000
H       -0.82760000      -2.81730000      -1.07020000
H        0.03240000      -2.78010000       1.45580000
H        1.42840000      -2.75990000       0.36800000
H        1.88600000      -0.47970000       1.00100000
H        0.48270000      -0.49810000       2.08640000
H       -3.04850000      -1.67240000       1.14510000
H       -2.55450000       0.03070000       1.60540000
H       -2.56130000       0.59820000      -0.66250000
