21
Properties=species:S:1:pos:R:3 gdb_87871=T pbc="F F F"
C        0.03130000       1.54840000       0.36460000
C       -0.03620000       0.04450000       0.21180000
C        1.17870000      -0.72860000      -0.29700000
C        0.74570000      -0.84030000       1.12960000
O        1.55680000      -0.30770000       2.18800000
C        1.27790000      -1.45960000       3.01620000
C        0.07530000      -1.25010000       3.96520000
C       -0.87620000      -1.84560000       2.87800000
C        0.33890000      -2.06630000       1.93340000
H        0.99350000       1.85130000       0.78650000
H       -0.09570000       2.05190000      -0.59980000
H       -0.75110000       1.91220000       1.03950000
H       -1.00270000      -0.34470000      -0.10270000
H        1.02590000      -1.57400000      -0.96090000
H        2.08370000      -0.15890000      -0.48550000
H        2.19250000      -1.91540000       3.40280000
H        0.12610000      -1.85170000       4.87680000
H       -0.08680000      -0.20540000       4.23860000
H       -1.35450000      -2.77710000       3.18890000
H       -1.64750000      -1.17590000       2.48940000
H        0.47100000      -3.04250000       1.46780000
