19
Properties=species:S:1:pos:R:3 gdb_41852=T pbc="F F F"
C       -0.01180000       1.41390000      -0.10950000
C        1.42910000       1.93610000      -0.04710000
C        2.20810000       1.30250000       1.12180000
C        1.82170000       1.79410000       2.53100000
C        0.60980000       1.07910000       3.06750000
C        0.08440000       0.03260000       2.43690000
C        0.68390000      -0.46670000       1.14160000
O       -0.04830000      -0.00570000       0.01560000
O        2.04710000      -0.11960000       1.04390000
H       -0.62900000       1.88320000       0.66900000
H       -0.46610000       1.63790000      -1.07840000
H        1.94540000       1.65670000      -0.97150000
H        1.43560000       3.02960000       0.02280000
H        3.27620000       1.47890000       0.96660000
H        2.66480000       1.63730000       3.21820000
H        1.64950000       2.87790000       2.51510000
H        0.18870000       1.43710000       4.00400000
H       -0.80230000      -0.47640000       2.80120000
H        0.64620000      -1.55720000       1.07700000
