23
Properties=species:S:1:pos:R:3 gdb_86303=T pbc="F F F"
C       -0.56730000       0.90660000      -1.63690000
C        0.34240000      -0.17720000      -1.07940000
C        1.87420000      -0.07600000      -1.30890000
C        2.09170000      -0.64920000       0.11720000
C        3.23750000      -0.11990000       0.96570000
C        0.61670000      -0.27680000       0.45030000
C        0.27860000       0.89290000       1.40590000
O       -0.52520000       0.03800000       2.24380000
C       -0.25940000      -1.10350000       1.40500000
H       -0.22360000       1.90700000      -1.35270000
H       -0.58900000       0.86590000      -2.73150000
H       -1.59750000       0.79330000      -1.28070000
H       -0.01200000      -1.15840000      -1.42070000
H        2.30590000      -0.61850000      -2.15400000
H        2.19650000       0.97040000      -1.36740000
H        2.15680000      -1.74350000       0.06280000
H        3.23300000       0.97450000       1.01170000
H        3.18860000      -0.49800000       1.99320000
H        4.20160000      -0.42650000       0.54540000
H        1.12340000       1.32340000       1.95800000
H       -0.31270000       1.71080000       0.97560000
H       -1.17850000      -1.51580000       0.96480000
H        0.26110000      -1.90420000       1.94960000
