23
Properties=species:S:1:pos:R:3 gdb_103805=T pbc="F F F"
C        0.12220000       1.53190000       0.20510000
C       -0.24180000       0.08700000      -0.16410000
C        0.60820000      -0.47710000      -1.29460000
C        0.39010000       0.17080000      -2.65140000
C        1.97780000      -0.98680000      -0.98270000
C        0.90210000      -1.99510000      -1.35050000
C        0.40060000      -2.93830000      -0.31130000
C       -0.28320000      -4.19070000      -0.83260000
O        0.52290000      -2.73450000       0.88100000
H        1.17540000       1.60910000       0.49500000
H       -0.04800000       2.22790000      -0.62250000
H       -0.48230000       1.87420000       1.05060000
H       -0.13130000      -0.54640000       0.71840000
H       -1.29980000       0.04140000      -0.45640000
H        0.63730000       1.23720000      -2.62250000
H        1.01580000      -0.29000000      -3.42170000
H       -0.65570000       0.08120000      -2.96740000
H        2.78000000      -0.82840000      -1.69580000
H        2.27920000      -1.01130000       0.05960000
H        0.92980000      -2.40580000      -2.35500000
H        0.41540000      -4.77850000      -1.43950000
H       -0.63970000      -4.79460000       0.00240000
H       -1.12240000      -3.92410000      -1.48530000
