20
Properties=species:S:1:pos:R:3 gdb_14771=T pbc="F F F"
C       -0.02570000       1.55990000       0.11360000
C       -0.01330000       0.03030000       0.04860000
C       -1.42070000      -0.57380000       0.00630000
C       -1.40710000      -2.09400000      -0.05780000
O       -2.74330000      -2.56070000      -0.09370000
C       -2.84980000      -3.95700000      -0.15410000
C       -4.32400000      -4.32110000      -0.18520000
O       -4.73200000      -5.45040000      -0.23770000
H        0.99010000       1.96570000       0.14230000
H       -0.53200000       1.98830000      -0.75830000
H       -0.55190000       1.91320000       1.00710000
H        0.55000000      -0.29390000      -0.83640000
H        0.52920000      -0.36840000       0.91610000
H       -1.98940000      -0.26590000       0.89230000
H       -1.96840000      -0.19180000      -0.86400000
H       -0.86210000      -2.43910000      -0.95320000
H       -0.88370000      -2.51400000       0.81830000
H       -2.36380000      -4.37420000      -1.05330000
H       -2.38280000      -4.44930000       0.71680000
H       -4.99940000      -3.43760000      -0.15480000
