21
Properties=species:S:1:pos:R:3 gdb_102751=T pbc="F F F"
C        0.19150000       1.49280000       0.08140000
C        0.10440000      -0.01720000      -0.15010000
C        0.96640000      -0.48690000      -1.33090000
O        2.32340000      -0.19830000      -1.03430000
C        3.17000000      -0.22950000      -2.14720000
C        3.27000000       0.99250000      -3.02360000
C        4.39050000       0.62570000      -2.06910000
C        0.77280000      -1.98790000      -1.52670000
O       -0.14750000      -2.48140000      -2.12360000
H        1.22340000       1.79510000       0.27490000
H       -0.16730000       2.04660000      -0.79310000
H       -0.41980000       1.78870000       0.93900000
H        0.42650000      -0.55440000       0.75040000
H       -0.92800000      -0.32030000      -0.35420000
H        0.64780000       0.02700000      -2.24950000
H        3.25470000      -1.20560000      -2.62570000
H        3.42290000       0.85950000      -4.08880000
H        2.65330000       1.84200000      -2.75260000
H        4.49550000       1.23120000      -1.17620000
H        5.32000000       0.24010000      -2.47160000
H        1.55630000      -2.60380000      -1.02550000
