20
Properties=species:S:1:pos:R:3 gdb_98696=T pbc="F F F"
C        0.37060000       1.17780000      -0.19800000
O        0.03390000      -0.18130000       0.09450000
C        0.59560000      -0.66990000       1.22430000
O        1.35420000      -0.05040000       1.93220000
N        0.11680000      -1.93840000       1.49300000
C        0.08290000      -3.04130000       0.55060000
C        0.95870000      -3.09550000       1.77490000
C        2.45780000      -2.96120000       1.59770000
C        0.52140000      -3.92330000       2.96590000
H        1.44890000       1.29100000      -0.33770000
H       -0.16000000       1.42190000      -1.11880000
H        0.05240000       1.83910000       0.61210000
H       -0.84800000      -3.60190000       0.51760000
H        0.56180000      -2.89340000      -0.41400000
H        2.71170000      -2.42860000       0.67740000
H        2.89560000      -2.40790000       2.43330000
H        2.91980000      -3.95290000       1.55800000
H        0.88650000      -4.95170000       2.87410000
H        0.92410000      -3.50310000       3.89350000
H       -0.56800000      -3.94420000       3.04720000
