12
Properties=species:S:1:pos:R:3 gdb_130549=T pbc="F F F"
O       -0.00530000      -0.04110000       0.00270000
C       -0.02390000       1.17360000       0.00630000
C        1.18620000       1.96710000       0.00030000
C        2.21120000       2.59640000      -0.00490000
C       -1.31510000       1.90800000       0.01710000
N       -1.36430000       3.22400000       0.02110000
O       -2.70260000       3.54310000       0.03120000
C       -3.43000000       2.40790000       0.03290000
C       -2.61550000       1.32650000       0.02430000
H        3.11400000       3.15770000      -0.00940000
H       -4.50020000       2.54110000       0.04060000
H       -2.86550000       0.28020000       0.02300000
