17
Properties=species:S:1:pos:R:3 gdb_67056=T pbc="F F F"
C       -0.74360000       1.35360000      -1.41140000
C       -0.26840000       0.31070000      -0.43850000
C       -1.09500000      -0.47320000       0.27190000
C       -0.67230000      -1.50100000       1.28450000
C        0.77820000      -1.33690000       1.71940000
C        1.72110000      -0.95610000       0.59490000
C        1.20420000       0.20080000      -0.26450000
O        1.97270000       0.97700000      -0.79100000
O        1.13670000      -1.49010000       2.85990000
H       -0.35260000       1.15700000      -2.41510000
H       -1.83460000       1.38590000      -1.45790000
H       -0.36930000       2.34190000      -1.12690000
H       -2.16890000      -0.36060000       0.13730000
H       -1.31230000      -1.47570000       2.17200000
H       -0.78440000      -2.51040000       0.85680000
H        2.71770000      -0.72680000       0.97390000
H        1.79900000      -1.82660000      -0.07440000
