15
Properties=species:S:1:pos:R:3 gdb_133126=T pbc="F F F"
O        0.01890000       1.44120000       0.00760000
C        0.02120000       0.02640000       0.00190000
C       -1.40270000      -0.46530000       0.01220000
C       -2.50760000       0.37570000       0.02330000
C       -3.78950000      -0.17660000       0.03220000
C       -3.91720000      -1.55760000       0.02950000
N       -2.86440000      -2.38870000       0.01890000
C       -1.67990000      -1.83480000       0.01080000
F       -0.63300000      -2.66930000       0.00010000
H        0.93140000       1.74240000       0.00170000
H        0.53550000      -0.37440000      -0.88620000
H        0.55070000      -0.38160000       0.87780000
H       -2.35110000       1.44710000       0.02500000
H       -4.66980000       0.45540000       0.04090000
H       -4.89560000      -2.02960000       0.03620000
