18
Properties=species:S:1:pos:R:3 gdb_62746=T pbc="F F F"
C        0.04030000       1.54320000       0.03030000
C        0.09070000       0.03260000       0.05020000
O       -1.08430000      -0.57620000      -0.41650000
C        1.33290000      -0.79330000      -0.19530000
N        2.53260000      -0.19100000       0.38340000
C        1.94720000      -0.09600000       1.65990000
O        2.33800000       0.39120000       2.68370000
C        0.68270000      -0.81130000       1.19310000
C       -0.07900000      -1.85440000       1.95450000
H        0.95230000       1.99520000       0.42470000
H       -0.09940000       1.90740000      -0.99580000
H       -0.80240000       1.89520000       0.63230000
H       -1.25790000      -0.24250000      -1.30370000
H        1.39020000      -1.59800000      -0.91750000
H        3.06220000       0.56290000      -0.04070000
H       -0.43690000      -1.43790000       2.90200000
H       -0.94280000      -2.19890000       1.38340000
H        0.55540000      -2.71500000       2.18900000
