19
Properties=species:S:1:pos:R:3 gdb_6830=T pbc="F F F"
C       -0.04360000       1.40100000       0.12910000
N       -0.08500000      -0.04650000       0.28670000
C       -1.12520000      -0.66860000      -0.01790000
O       -2.33990000      -0.21750000      -0.51390000
C       -2.87160000      -1.57580000      -0.54550000
C       -1.53310000      -2.13520000       0.00850000
C       -0.74020000      -3.01780000      -0.95570000
C       -1.60250000      -2.73540000       1.41290000
H        0.77810000       1.66500000      -0.54580000
H       -0.97130000       1.83670000      -0.26000000
H        0.18070000       1.86100000       1.09800000
H       -3.74190000      -1.66990000       0.10990000
H       -3.13180000      -1.86970000      -1.56620000
H       -0.70700000      -2.58470000      -1.96010000
H        0.28970000      -3.12950000      -0.60480000
H       -1.18820000      -4.01510000      -1.02650000
H       -2.06730000      -3.72710000       1.38850000
H       -0.59620000      -2.83930000       1.82890000
H       -2.18190000      -2.10170000       2.09120000
