16
Properties=species:S:1:pos:R:3 gdb_52473=T pbc="F F F"
C       -0.01610000       1.50230000       0.03030000
C        0.00280000       0.05150000       0.00900000
C        0.02020000      -1.15830000      -0.01140000
C        0.03990000      -2.51740000      -0.03430000
C        0.05710000      -3.72650000      -0.06100000
C        0.05200000      -5.18800000      -0.06440000
C       -1.38450000      -5.76850000      -0.00970000
C        0.77540000      -5.71600000      -1.23560000
N        1.33110000      -6.15370000      -2.14870000
H        1.00080000       1.91020000       0.02550000
H       -0.54160000       1.90320000      -0.84360000
H       -0.52270000       1.87740000       0.92650000
H        0.59630000      -5.54160000       0.82290000
H       -1.34720000      -6.86010000       0.01600000
H       -1.88660000      -5.40360000       0.88860000
H       -1.95510000      -5.45300000      -0.88520000
