20
Properties=species:S:1:pos:R:3 gdb_58170=T pbc="F F F"
C        0.54090000       1.64330000       0.00890000
C       -0.04080000       0.25720000      -0.29790000
N        0.60000000      -0.89010000       0.34110000
C        1.84920000      -1.30190000      -0.27430000
C        0.69560000      -0.80700000       1.79100000
C       -1.54570000       0.20300000       0.01270000
O       -2.15980000       1.13620000       0.48160000
C       -2.20720000      -1.05150000      -0.31000000
C       -2.80610000      -2.05150000      -0.61100000
H        1.61110000       1.66610000      -0.21550000
H        0.04580000       2.40620000      -0.59680000
H        0.39380000       1.91540000       1.05640000
H        0.03090000       0.07550000      -1.38000000
H        2.68110000      -0.58910000      -0.12410000
H        2.16110000      -2.26300000       0.14820000
H        1.70780000      -1.43800000      -1.35090000
H       -0.26880000      -0.51740000       2.21870000
H        0.95680000      -1.79210000       2.19120000
H        1.45500000      -0.08840000       2.14650000
H       -3.33150000      -2.93850000      -0.86930000
