19
Properties=species:S:1:pos:R:3 gdb_65270=T pbc="F F F"
C       -0.12480000       1.44630000      -0.62370000
C       -0.02480000      -0.00500000      -0.21590000
C        1.24930000      -0.72570000      -0.34060000
O        0.78060000      -0.28860000       0.94000000
C       -1.31560000      -0.81100000      -0.21150000
C       -2.36570000      -0.29310000       0.80080000
O       -3.25240000       0.47240000      -0.00390000
C       -3.28890000      -0.21720000      -1.22380000
O       -1.97600000      -0.68450000      -1.47360000
H        0.83740000       1.94370000      -0.48140000
H       -0.41450000       1.52060000      -1.67510000
H       -0.88040000       1.97290000      -0.03300000
H        1.25260000      -1.80420000      -0.49460000
H        2.12610000      -0.20140000      -0.71800000
H       -1.07530000      -1.86260000      -0.01570000
H       -2.89400000      -1.13200000       1.27620000
H       -1.94530000       0.34990000       1.57550000
H       -3.98860000      -1.07150000      -1.17250000
H       -3.59040000       0.47200000      -2.01770000
