19
Properties=species:S:1:pos:R:3 gdb_114028=T pbc="F F F"
O       -0.08180000       1.19870000      -0.95600000
C        0.03190000       0.22990000       0.07240000
C       -1.28790000      -0.46350000       0.30130000
O       -1.68340000      -1.40050000      -0.71870000
C       -1.46740000      -1.89200000       0.60920000
C       -0.36060000      -2.90410000       0.79630000
C       -0.75370000      -4.26890000       0.19680000
C        0.38190000      -5.26320000       0.26910000
O        0.32400000      -6.34180000       0.79950000
H       -0.39290000       0.73620000      -1.74250000
H        0.82120000      -0.50010000      -0.15210000
H        0.32520000       0.77500000       0.97640000
H       -2.09020000       0.21560000       0.59620000
H       -2.39460000      -2.15830000       1.12300000
H        0.56180000      -2.55100000       0.32620000
H       -0.15790000      -3.01370000       1.86880000
H       -1.62660000      -4.69540000       0.69940000
H       -1.00340000      -4.11740000      -0.86260000
H        1.32350000      -4.91570000      -0.21940000
