19
Properties=species:S:1:pos:R:3 gdb_70637=T pbc="F F F"
C       -0.47380000       1.33850000      -0.11490000
C        0.01590000      -0.07580000       0.06500000
C       -0.49190000      -0.94500000       1.20490000
C        0.95750000      -0.52650000       1.14510000
O        1.90760000      -1.43260000       0.64470000
C        1.41100000      -1.94640000      -0.58320000
C        0.49020000      -0.84150000      -1.18110000
C       -0.56620000      -1.37230000      -2.02930000
C       -1.44180000      -1.81840000      -2.72230000
H        0.26720000       1.95300000      -0.63990000
H       -1.40170000       1.36160000      -0.69740000
H       -0.67700000       1.81100000       0.85100000
H       -1.11540000      -0.45520000       1.94570000
H       -0.75890000      -1.97920000       1.01650000
H        1.38350000       0.13550000       1.89020000
H        2.26240000      -2.18350000      -1.22540000
H        0.83430000      -2.86620000      -0.42270000
H        1.10410000      -0.14730000      -1.77050000
H       -2.21340000      -2.20900000      -3.33820000
