18
Properties=species:S:1:pos:R:3 gdb_12846=T pbc="F F F"
C       -0.20770000       1.49950000       0.04720000
C        0.02720000       0.00330000       0.00690000
O       -1.19690000      -0.72760000       0.33030000
C       -0.49730000      -1.54090000       1.29400000
C        0.80590000      -0.72830000       1.14150000
C        2.01090000      -1.43600000       0.49860000
C        1.73940000      -1.28890000      -0.98350000
C        0.68690000      -0.51530000      -1.24800000
H        0.72770000       2.04420000      -0.11810000
H       -0.91630000       1.79290000      -0.73490000
H       -0.62650000       1.79770000       1.01260000
H       -0.98160000      -1.50680000       2.27680000
H       -0.41840000      -2.58850000       0.97230000
H        1.06000000      -0.12400000       2.01320000
H        2.96400000      -0.96790000       0.77850000
H        2.08840000      -2.48800000       0.80310000
H        2.35840000      -1.77220000      -1.73270000
H        0.31350000      -0.27220000      -2.23700000
