18
Properties=species:S:1:pos:R:3 gdb_64957=T pbc="F F F"
C        0.05880000       1.08350000      -1.31030000
C       -0.06650000       0.12350000      -0.14870000
C        0.76560000      -1.12410000      -0.14410000
N        1.06050000      -0.04810000       0.79960000
C       -1.43360000       0.06240000       0.48040000
O       -2.39980000       0.52720000      -0.08290000
C       -1.56500000      -0.59420000       1.83560000
C       -2.64470000      -0.12330000       2.72620000
O       -2.77060000      -1.34530000       2.02310000
H        1.05380000       1.01700000      -1.76130000
H       -0.68940000       0.86010000      -2.07420000
H       -0.10800000       2.11460000      -0.98320000
H        0.38650000      -2.04020000       0.30020000
H        1.41450000      -1.27210000      -1.00330000
H        1.85280000       0.50250000       0.47790000
H       -0.67260000      -1.02570000       2.27650000
H       -2.50660000      -0.20410000       3.80350000
H       -3.28530000       0.68120000       2.37150000
