16
Properties=species:S:1:pos:R:3 gdb_30593=T pbc="F F F"
C       -0.07840000       1.48900000       0.13310000
C        0.02600000      -0.02450000      -0.03380000
C        0.75390000      -0.43090000      -1.30440000
O        1.20350000       0.37140000      -2.09870000
C        0.90990000      -1.87030000      -1.56430000
C        1.49230000      -2.57220000      -2.57770000
N        1.36350000      -3.92640000      -2.33900000
C        0.72080000      -3.98580000      -1.21370000
O        0.40650000      -2.79370000      -0.67490000
H        0.91280000       1.94790000       0.16650000
H       -0.61570000       1.93860000      -0.70560000
H       -0.60730000       1.73650000       1.05730000
H        0.54510000      -0.48810000       0.81580000
H       -0.96520000      -0.49740000      -0.04620000
H        1.98930000      -2.18330000      -3.45140000
H        0.41330000      -4.86400000      -0.66710000
