20
Properties=species:S:1:pos:R:3 gdb_6703=T pbc="F F F"
C       -0.07520000       1.56060000      -0.07040000
C        0.02140000       0.02940000      -0.01140000
C        0.73080000      -0.52090000      -1.25550000
C        0.73570000      -0.45970000       1.25620000
N        0.01600000      -0.09480000       2.47500000
C        0.65720000      -0.61500000       3.67560000
C       -0.05530000      -0.18800000       4.88340000
N       -0.60160000       0.16690000       5.83710000
H        0.92020000       2.02020000      -0.03590000
H       -0.55480000       1.88200000      -1.00030000
H       -0.66950000       1.97080000       0.75240000
H       -0.99760000      -0.37710000       0.01910000
H        1.75870000      -0.14500000      -1.32300000
H        0.77570000      -1.61500000      -1.24120000
H        0.20890000      -0.21930000      -2.16880000
H        0.79840000      -1.55550000       1.22950000
H        1.77980000      -0.08820000       1.25320000
H       -0.05280000       0.91440000       2.54920000
H        0.64390000      -1.71170000       3.63740000
H        1.71820000      -0.32210000       3.78790000
