19
Properties=species:S:1:pos:R:3 gdb_89220=T pbc="F F F"
C       -0.03220000       1.47350000       0.08360000
C        0.01650000      -0.02770000      -0.05550000
C        0.99840000      -0.67770000      -1.02610000
C        0.39350000      -2.08090000      -1.35540000
O        1.31660000      -3.14600000      -1.30940000
C       -0.70030000      -2.22970000      -0.29460000
O        0.01150000      -2.23450000       0.99550000
C       -0.35170000      -0.85850000       1.16160000
C       -1.27810000      -0.83370000      -0.01750000
H        0.93080000       1.87030000       0.42390000
H       -0.27100000       1.95220000      -0.87300000
H       -0.79310000       1.78360000       0.80820000
H        1.10740000      -0.06620000      -1.92750000
H        1.99750000      -0.80020000      -0.59530000
H       -0.04100000      -2.09390000      -2.36090000
H        1.56920000      -3.22510000      -0.37930000
H       -1.35500000      -3.09650000      -0.39080000
H       -0.43550000      -0.47540000       2.17260000
H       -2.28750000      -0.46930000      -0.14900000
