14
Properties=species:S:1:pos:R:3 gdb_43458=T pbc="F F F"
N       -0.06300000       1.28060000       0.01190000
C       -0.03450000       0.02660000       0.00470000
O        1.09370000      -0.77210000      -0.00710000
C        0.72520000      -2.10410000      -0.01220000
O        1.49200000      -3.00670000      -0.02220000
O       -0.62080000      -2.20350000      -0.00410000
C       -1.18780000      -0.90240000       0.00690000
C       -2.45490000      -0.65780000       0.77140000
C       -2.46470000      -0.64930000      -0.73820000
H        0.87180000       1.68670000       0.00820000
H       -2.88310000      -1.51720000       1.27410000
H       -2.52420000       0.28730000       1.29740000
H       -2.54080000       0.30170000      -1.25250000
H       -2.89950000      -1.50300000      -1.24500000
