20
Properties=species:S:1:pos:R:3 gdb_31514=T pbc="F F F"
C        0.24570000       1.51830000       0.20800000
C       -0.09120000       0.04990000      -0.11170000
C        0.57330000      -0.47100000      -1.34680000
C        0.05710000      -0.76610000      -2.59280000
C        1.14060000      -1.20070000      -3.40720000
O        1.10440000      -1.60090000      -4.71750000
C        2.29560000      -1.16740000      -2.65960000
C        3.69620000      -1.52450000      -3.02100000
N        1.92170000      -0.71580000      -1.40360000
H        1.32110000       1.65630000       0.36230000
H       -0.05500000       2.17260000      -0.61560000
H       -0.26730000       1.84960000       1.11690000
H        0.17390000      -0.57560000       0.75250000
H       -1.17350000      -0.05480000      -0.23890000
H       -0.98050000      -0.68010000      -2.88250000
H        0.19550000      -1.54610000      -5.02390000
H        4.38650000      -0.67610000      -2.92220000
H        4.09510000      -2.34270000      -2.40640000
H        3.72350000      -1.85180000      -4.06280000
H        2.55740000      -0.59790000      -0.63400000
