22
Properties=species:S:1:pos:R:3 gdb_63657=T pbc="F F F"
C       -0.03340000       1.47040000      -0.12450000
C        0.00730000      -0.02120000       0.13630000
C       -0.96240000      -0.83170000      -0.70000000
O        1.32120000      -0.59970000       0.24300000
C        0.48440000      -0.59140000       1.41020000
C        0.96440000       0.19970000       2.60310000
N        1.87920000      -0.61420000       3.39830000
C        3.27450000      -0.60430000       2.96320000
C        2.85810000       0.11370000       4.19920000
H        0.72730000       2.00660000       0.44390000
H        0.14000000       1.66660000      -1.18840000
H       -1.01620000       1.88100000       0.13190000
H       -0.77160000      -0.67190000      -1.76700000
H       -0.85930000      -1.89890000      -0.49030000
H       -1.99670000      -0.53300000      -0.49700000
H        0.10740000      -1.57910000       1.68310000
H        1.42830000       1.14210000       2.27040000
H        0.10500000       0.45660000       3.23650000
H        3.79260000      -1.55650000       3.02720000
H        3.52680000      -0.00540000       2.09130000
H        2.84140000       1.20210000       4.16210000
H        3.06850000      -0.30320000       5.18000000
