17
Properties=species:S:1:pos:R:3 gdb_72753=T pbc="F F F"
O        0.13800000       1.41530000       0.12310000
C       -0.00020000       0.03690000      -0.00530000
C        0.27240000      -0.69560000       1.33190000
O       -1.07000000      -1.26890000       1.36100000
C       -1.33190000      -0.76930000       0.07290000
C       -2.62120000      -0.34730000      -0.59040000
O       -2.03180000      -0.69140000      -1.87920000
C       -0.94290000      -1.44180000      -1.27220000
C        0.40350000      -0.68280000      -1.32680000
H       -0.08770000       1.82320000      -0.71990000
H        1.04750000      -1.46890000       1.31920000
H        0.42910000      -0.01040000       2.16950000
H       -3.48750000      -0.98180000      -0.36000000
H       -2.90880000       0.70840000      -0.52820000
H       -0.98910000      -2.51060000      -1.49460000
H        0.47710000      -0.01800000      -2.19280000
H        1.30510000      -1.30030000      -1.27380000
