18
Properties=species:S:1:pos:R:3 gdb_23076=T pbc="F F F"
O       -0.08310000       1.35560000       0.20200000
N        0.06380000      -0.03740000       0.09660000
C       -1.06240000      -0.61690000      -0.04110000
C       -2.43170000       0.01610000      -0.18560000
C       -3.26740000      -1.04820000      -0.88150000
C       -2.72030000      -1.61080000      -2.17050000
O       -1.72460000      -0.99650000      -2.93660000
C       -2.47330000      -2.36450000      -0.89060000
C       -1.15260000      -2.12640000      -0.17230000
H        0.83130000       1.65310000       0.25740000
H       -2.84360000       0.25450000       0.80300000
H       -2.36250000       0.95930000      -0.73550000
H       -4.34130000      -1.03570000      -0.73200000
H       -3.45350000      -2.04850000      -2.84050000
H       -0.98240000      -0.74860000      -2.37530000
H       -2.96080000      -3.32230000      -0.74680000
H       -0.27840000      -2.54180000      -0.68320000
H       -1.18750000      -2.58400000       0.82460000
