15
Properties=species:S:1:pos:R:3 gdb_83067=T pbc="F F F"
O       -0.02490000       1.38300000      -0.07970000
C       -0.06980000       0.00440000      -0.02150000
C       -0.42470000      -0.69210000       1.25010000
N       -1.13520000       0.16410000       2.16830000
C       -2.37130000       0.45020000       1.58180000
N       -2.57630000      -0.01190000       0.40770000
C       -1.41090000      -0.76400000       0.02250000
C       -1.57790000      -1.91780000      -0.80450000
C       -1.67570000      -2.89390000      -1.50070000
H       -0.16640000       1.71390000       0.81770000
H        0.68030000      -0.47600000      -0.64190000
H        0.14180000      -1.52150000       1.65510000
H       -1.09950000      -0.04490000       3.15570000
H       -3.07780000       1.07760000       2.11470000
H       -1.77840000      -3.75020000      -2.11970000
