14
Properties=species:S:1:pos:R:3 gdb_45678=T pbc="F F F"
O       -0.01210000      -0.03840000       0.00270000
C       -0.02280000       1.16560000       0.00940000
C       -1.20150000       2.17160000       0.03240000
N       -0.65080000       3.53520000       0.03180000
C        0.61480000       3.33690000       0.01170000
N        1.73960000       4.12330000      -0.00080000
C        2.87410000       3.29500000      -0.02150000
C        2.48210000       2.00480000      -0.02280000
N        1.08330000       2.01960000      -0.00260000
H       -1.84270000       1.99590000      -0.83950000
H       -1.81670000       1.98610000       0.92080000
H        1.73200000       5.12690000       0.00730000
H        3.86630000       3.71290000      -0.03380000
H        3.04930000       1.09140000      -0.03630000
