20
Properties=species:S:1:pos:R:3 gdb_108350=T pbc="F F F"
O       -0.00280000       1.38060000      -0.26330000
C        0.03880000      -0.00660000       0.01550000
C       -1.36290000      -0.55710000       0.13820000
C       -2.17480000      -0.33710000       1.44400000
C       -2.53790000      -1.86000000       1.45870000
C       -1.72940000      -2.06080000       0.14350000
C       -2.44420000      -1.80470000      -1.19180000
C       -3.46480000      -0.74350000      -1.12920000
N       -2.05530000      -0.32630000      -1.20810000
H       -0.58300000       1.46320000      -1.03230000
H        0.57790000      -0.56030000      -0.77080000
H        0.59060000      -0.13160000       0.95340000
H       -1.53930000      -0.03020000       2.27830000
H       -3.00830000       0.36670000       1.38370000
H       -2.10890000      -2.39700000       2.30750000
H       -3.60150000      -2.10590000       1.40280000
H       -0.96970000      -2.84190000       0.11910000
H       -2.31870000      -2.42240000      -2.07620000
H       -4.00300000      -0.52490000      -2.04730000
H       -4.04480000      -0.56410000      -0.23000000
