16
Properties=species:S:1:pos:R:3 gdb_79221=T pbc="F F F"
N       -0.10650000       1.51690000      -0.03620000
C       -0.06540000       0.08820000      -0.04940000
C       -1.37870000      -0.68630000      -0.09980000
C       -1.73610000      -0.84430000      -1.57780000
N       -0.71350000      -0.08310000      -2.34000000
C        0.27750000      -0.70800000      -1.38600000
C        1.62580000      -0.90670000      -1.83330000
N        2.72120000      -1.06700000      -2.17040000
C       -0.77560000      -1.80230000      -0.94040000
H        0.82270000       1.91330000       0.05990000
H       -0.50180000       1.84850000      -0.91220000
H        0.56550000      -0.28710000       0.75970000
H       -2.12490000      -0.77110000       0.67890000
H       -2.74900000      -0.98190000      -1.93020000
H       -0.59730000      -0.54500000      -3.24170000
H       -0.72770000      -2.87330000      -0.80490000
