18
Properties=species:S:1:pos:R:3 gdb_34663=T pbc="F F F"
N        0.06550000      -1.12390000      -0.46970000
C        0.01180000       0.01150000      -0.24370000
C        0.00050000       1.41480000       0.03250000
C       -1.16950000       2.07360000       0.01050000
C       -1.37730000       3.55050000       0.21550000
C       -0.62730000       4.19180000       1.39450000
C        0.89590000       4.16270000       1.27970000
O        1.44930000       2.86730000       1.42420000
C        1.37150000       2.04280000       0.28770000
H       -2.06090000       1.49090000      -0.20610000
H       -1.09270000       4.07090000      -0.71290000
H       -2.44930000       3.73400000       0.33610000
H       -0.94260000       5.23950000       1.47420000
H       -0.91420000       3.69640000       2.32860000
H        1.21660000       4.60650000       0.32140000
H        1.33590000       4.76070000       2.08390000
H        2.10160000       1.24450000       0.44110000
H        1.67820000       2.60050000      -0.61410000
