17
Properties=species:S:1:pos:R:3 gdb_101979=T pbc="F F F"
C       -0.36770000       1.46720000       0.24680000
C       -0.09250000      -0.02590000       0.05490000
C        0.65710000      -0.38820000      -1.28320000
C        1.98440000       0.36470000      -1.32670000
O        2.90080000       0.08360000      -0.59550000
C        0.90860000      -1.89770000      -1.20710000
O        0.10490000      -2.71620000      -1.57010000
C       -0.24090000      -0.03670000      -2.45950000
O       -0.21890000       1.04030000      -3.00200000
H        0.56120000       2.03910000       0.33060000
H       -0.94730000       1.88600000      -0.57950000
H       -0.93350000       1.61740000       1.17080000
H        0.53100000      -0.40070000       0.87430000
H       -1.02580000      -0.59930000       0.07050000
H        2.04910000       1.17730000      -2.07450000
H        1.88250000      -2.17510000      -0.75730000
H       -0.93360000      -0.84170000      -2.77210000
