16
Properties=species:S:1:pos:R:3 gdb_69450=T pbc="F F F"
O       -0.38920000       1.35310000       0.11360000
C       -0.16040000      -0.01490000       0.06830000
C       -0.19410000      -0.78040000      -1.22840000
C       -1.29330000      -0.96740000      -0.20250000
C       -1.09300000      -2.12730000       0.76270000
O        0.25810000      -2.02900000       1.20490000
C        0.64010000      -0.65060000       1.19690000
C       -2.04280000      -2.04970000       1.89490000
N       -2.78550000      -1.99290000       2.77790000
H        0.37200000       1.80130000      -0.27070000
H       -0.47310000      -0.21790000      -2.11230000
H        0.52100000      -1.58150000      -1.38840000
H       -2.29240000      -0.60660000      -0.40770000
H       -1.20010000      -3.11250000       0.29600000
H        1.72580000      -0.62770000       1.06130000
H        0.38350000      -0.15010000       2.14120000
