18
Properties=species:S:1:pos:R:3 gdb_66443=T pbc="F F F"
C        0.07500000       1.52330000      -0.03890000
C       -0.01570000       0.03560000      -0.10720000
C        0.84280000      -0.98690000      -0.77260000
N        0.83460000      -0.88100000       0.73520000
C       -0.32340000      -1.87320000       0.76940000
C       -0.32920000      -2.01620000      -0.72230000
O       -0.66640000      -3.11200000      -1.46710000
C       -1.22140000      -0.95580000      -0.04890000
C       -2.70480000      -0.79370000      -0.08300000
H        1.12500000       1.82900000       0.00790000
H       -0.37970000       1.99130000      -0.91920000
H       -0.42920000       1.91090000       0.85320000
H        1.75810000      -0.90130000      -1.34920000
H       -0.52640000      -2.56400000       1.57850000
H       -1.08500000      -2.81640000      -2.28450000
H       -3.19220000      -1.77490000      -0.06960000
H       -3.07630000      -0.22860000       0.77950000
H       -3.03580000      -0.27210000      -0.98950000
