14
Properties=species:S:1:pos:R:3 gdb_48464=T pbc="F F F"
O       -0.92250000       0.84280000       0.43280000
C        0.15980000       0.64740000      -0.05350000
C        1.24490000       1.70720000      -0.10120000
N        2.48580000       1.34080000      -0.79560000
C        2.40940000       2.49090000      -1.74000000
C        1.01180000       2.81060000      -1.21240000
O        0.11140000       3.52820000      -1.49270000
C        1.42730000       2.35340000       1.26500000
O        2.51690000       2.60280000       1.71140000
H        0.46160000      -0.31030000      -0.52570000
H        3.27910000       1.41380000      -0.16330000
H        3.11690000       3.30730000      -1.54630000
H        2.45900000       2.21820000      -2.79940000
H        0.48390000       2.56150000       1.80160000
