21
Properties=species:S:1:pos:R:3 gdb_102680=T pbc="F F F"
C        0.88490000       0.44600000      -0.65340000
C        0.01160000       0.20710000       0.58290000
C       -1.43720000      -0.17380000       0.24720000
C       -1.58130000      -1.60690000      -0.27300000
O       -1.18740000      -2.55570000       0.69860000
O       -2.26790000      -0.14500000       1.41360000
C       -2.72690000       1.13800000       1.79310000
C       -3.60110000       1.02280000       2.95340000
C       -4.32370000       0.95300000       3.90980000
H        1.89620000       0.74380000      -0.36150000
H        0.97570000      -0.45400000      -1.26950000
H        0.47490000       1.24210000      -1.28540000
H        0.43240000      -0.59360000       1.19930000
H        0.00920000       1.11410000       1.19800000
H       -1.84320000       0.51930000      -0.50920000
H       -2.62570000      -1.76100000      -0.58410000
H       -0.94340000      -1.76200000      -1.14840000
H       -1.69210000      -2.34370000       1.49320000
H       -1.88790000       1.80860000       2.03650000
H       -3.27640000       1.60800000       0.96000000
H       -4.96270000       0.88680000       4.75540000
