17
Properties=species:S:1:pos:R:3 gdb_29608=T pbc="F F F"
N        0.31000000       1.35340000       0.33300000
C        0.11840000      -0.01940000       0.10270000
C       -1.09060000      -0.66870000      -0.03670000
N       -0.82900000      -2.01560000      -0.18470000
C        0.51420000      -2.23880000      -0.12920000
C        1.14410000      -1.02080000       0.03380000
C        2.62480000      -0.76490000       0.10370000
C        2.97640000      -0.23510000       1.48110000
O        3.14890000       0.93310000       1.73040000
H        1.28320000       1.62080000       0.39640000
H       -0.18030000       1.95180000      -0.31740000
H       -2.09890000      -0.28930000      -0.02950000
H       -1.52780000      -2.72440000      -0.31420000
H        0.92670000      -3.22980000      -0.23390000
H        3.17220000      -1.69620000      -0.07920000
H        2.94190000      -0.01970000      -0.63570000
H        3.01150000      -1.00390000       2.28470000
