18
Properties=species:S:1:pos:R:3 gdb_44912=T pbc="F F F"
O        0.00040000      -0.01460000       0.05930000
C        0.00700000       1.19010000      -0.02430000
N       -1.09260000       2.01780000      -0.09520000
C       -0.73810000       3.43710000      -0.05790000
C        0.64700000       3.38270000      -0.73650000
C        1.22280000       2.15300000      -0.01430000
C        1.44830000       2.51540000       1.44270000
C        0.61210000       3.34550000       2.07130000
C       -0.58520000       3.96190000       1.38540000
H       -2.00130000       1.66830000       0.16840000
H       -1.46960000       4.02920000      -0.61430000
H        0.54080000       3.20790000      -1.81060000
H        1.23440000       4.28810000      -0.57100000
H        2.09690000       1.69770000      -0.47710000
H        2.27790000       2.05210000       1.96650000
H        0.76670000       3.59240000       3.11830000
H       -0.49630000       5.05760000       1.37320000
H       -1.49910000       3.74550000       1.95650000
