14
Properties=species:S:1:pos:R:3 gdb_131356=T pbc="F F F"
O        0.09550000       1.28200000      -0.36930000
C        0.09040000      -0.03880000      -0.15860000
N        0.29190000      -0.89270000      -1.14530000
N        0.20290000      -2.08070000      -0.47910000
C       -0.05110000      -1.88570000       0.82740000
C       -0.16040000      -2.97630000       1.83940000
C        1.09260000      -3.06270000       2.71310000
O        1.65260000      -4.09220000       2.97390000
N       -0.12530000      -0.58380000       1.07030000
H       -0.07690000       1.70020000       0.48270000
H        0.31380000      -2.94340000      -0.98600000
H       -1.00350000      -2.74960000       2.50410000
H       -0.33350000      -3.95200000       1.37930000
H        1.44390000      -2.08180000       3.09730000
