16
Properties=species:S:1:pos:R:3 gdb_18558=T pbc="F F F"
O        0.15210000       0.01320000      -0.47820000
C        0.05210000       1.15140000      -0.12950000
C       -1.12090000       2.02750000       0.35110000
C       -0.10140000       3.15390000       0.69600000
C        0.31460000       3.28350000       2.17150000
C        1.38250000       2.18530000       2.34000000
O        2.05150000       2.10940000       1.08050000
C        1.07750000       2.31380000       0.08660000
H       -1.81850000       2.27630000      -0.45480000
H       -1.69650000       1.60660000       1.18180000
H       -0.30890000       4.11500000       0.22750000
H        0.76180000       4.26630000       2.34600000
H       -0.52090000       3.16350000       2.86660000
H        2.13340000       2.40960000       3.10050000
H        0.92010000       1.21740000       2.58800000
H        1.56800000       2.66290000      -0.82600000
