17
Properties=species:S:1:pos:R:3 gdb_77546=T pbc="F F F"
N        0.05120000       1.46330000      -0.24130000
C       -0.00320000       0.04270000      -0.04830000
C       -0.03460000      -0.65740000       1.35030000
O        1.00770000      -0.58810000       2.24420000
C       -1.50590000      -0.15010000       1.52740000
C       -1.39900000      -0.67860000       0.06100000
C       -0.62670000      -1.90880000       0.62920000
C       -2.44450000      -0.70180000      -0.92120000
N       -3.28440000      -0.71870000      -1.71640000
H       -0.34010000       1.98350000       0.53550000
H        1.01260000       1.76460000      -0.35040000
H        0.66630000      -0.43530000      -0.76870000
H        0.77650000      -1.07650000       3.04200000
H       -2.14880000      -0.73330000       2.19130000
H       -1.67710000       0.91890000       1.66160000
H        0.02440000      -2.43780000      -0.07000000
H       -1.22330000      -2.59160000       1.23740000
