18
Properties=species:S:1:pos:R:3 gdb_47228=T pbc="F F F"
O       -0.01980000      -0.02950000       0.33440000
C        0.02470000       1.15290000       0.06870000
C       -1.27440000       1.95580000      -0.01850000
C       -1.31090000       3.29460000      -0.78850000
C       -0.68050000       3.23750000      -2.15890000
C        0.60250000       2.95800000      -2.39700000
C        1.63650000       2.64340000      -1.37760000
N        1.53690000       3.22970000      -0.03480000
C        1.36790000       1.77660000      -0.16590000
H       -2.00920000       1.25360000      -0.42570000
H       -1.58140000       2.13830000       1.02030000
H       -2.36070000       3.58970000      -0.88220000
H       -0.81320000       4.06260000      -0.19370000
H       -1.32460000       3.43620000      -3.01150000
H        0.95550000       2.93000000      -3.42440000
H        2.63890000       2.52050000      -1.78140000
H        2.46070000       3.43760000       0.33340000
H        2.17610000       1.11790000       0.14180000
