16
Properties=species:S:1:pos:R:3 gdb_2773=T pbc="F F F"
C       -0.09340000       1.41820000      -0.07970000
N       -0.16770000      -0.03350000      -0.16990000
C        0.58300000      -0.63750000      -0.96520000
O        1.54850000      -0.15800000      -1.84210000
C        1.90240000      -1.51370000      -2.24840000
C        0.81220000      -2.09570000      -1.31790000
C        1.23480000      -3.02070000      -0.18340000
H        0.68580000       1.86760000      -0.70640000
H       -1.06120000       1.84610000      -0.36450000
H        0.08560000       1.70250000       0.96300000
H        1.76080000      -1.65130000      -3.32320000
H        2.93410000      -1.74760000      -1.96920000
H       -0.03240000      -2.52050000      -1.86850000
H        2.09370000      -2.61260000       0.35870000
H        0.41510000      -3.14170000       0.52990000
H        1.50760000      -4.01020000      -0.56380000
