13
Properties=species:S:1:pos:R:3 gdb_125201=T pbc="F F F"
C        0.05550000       1.52300000      -0.01370000
C       -0.08990000       0.04830000       0.06450000
C       -1.09610000      -0.85110000      -0.03900000
O       -2.43760000      -1.01890000      -0.24850000
C       -2.56720000      -2.39200000      -0.17470000
N       -1.50960000      -3.09450000       0.04820000
C       -0.51630000      -2.11900000       0.14430000
N        0.77720000      -2.06940000       0.35400000
O        1.03670000      -0.68590000       0.30100000
H        0.74160000       1.80690000      -0.81820000
H       -0.91570000       1.98320000      -0.20560000
H        0.45480000       1.92740000       0.92200000
H       -3.57390000      -2.75810000      -0.31530000
