17
Properties=species:S:1:pos:R:3 gdb_50222=T pbc="F F F"
O       -0.13190000       0.04140000      -0.30410000
C        0.00340000       1.17640000       0.06600000
C        1.29640000       1.96890000      -0.00670000
O        2.43770000       1.14470000      -0.21350000
C        2.93400000       1.60490000      -1.45910000
C        2.86190000       3.15860000      -1.52710000
C        2.60010000       3.05670000      -3.04680000
C        1.76700000       1.90320000      -2.44240000
C        1.34810000       2.85390000      -1.26570000
H       -0.85200000       1.76490000       0.47600000
H        1.40350000       2.55530000       0.91840000
H        3.81970000       1.04550000      -1.75520000
H        3.48200000       3.87430000      -0.98660000
H        2.03760000       3.87670000      -3.49900000
H        3.44990000       2.77370000      -3.67430000
H        1.13390000       1.17800000      -2.95150000
H        0.59130000       3.62420000      -1.41250000
