24
Properties=species:S:1:pos:R:3 gdb_22119=T pbc="F F F"
C        0.13400000       1.53620000       0.05180000
C       -0.01820000       0.01190000       0.02410000
C       -1.47200000      -0.48920000      -0.05940000
C       -2.17140000      -0.04500000      -1.35140000
C       -1.50410000      -2.03050000       0.08440000
C       -2.88520000      -2.60560000       0.25790000
C       -3.67390000      -2.29930000       1.50450000
N       -3.31860000      -3.34760000      -0.69020000
O       -4.61810000      -3.82090000      -0.42620000
H        1.18280000       1.82070000       0.18280000
H       -0.21770000       2.00050000      -0.87440000
H       -0.43420000       1.97480000       0.88000000
H        0.54870000      -0.39870000      -0.82300000
H        0.44380000      -0.40650000       0.92780000
H       -2.01840000      -0.05740000       0.79240000
H       -3.18090000      -0.46000000      -1.41960000
H       -2.25250000       1.04360000      -1.41470000
H       -1.61570000      -0.39290000      -2.23060000
H       -1.04420000      -2.49080000      -0.79630000
H       -0.89930000      -2.31380000       0.95710000
H       -4.51940000      -1.64020000       1.27790000
H       -4.09940000      -3.21840000       1.91680000
H       -3.05150000      -1.81590000       2.26020000
H       -4.78690000      -4.37710000      -1.19360000
