20
Properties=species:S:1:pos:R:3 gdb_120232=T pbc="F F F"
C        0.00420000       1.58410000       0.03040000
C        0.12090000       0.05800000       0.01400000
C        0.58680000      -0.48600000      -1.34330000
C        0.74000000      -2.00400000      -1.34820000
C        1.37710000      -2.71190000      -2.56010000
N        2.75040000      -2.20570000      -2.65440000
C        2.44710000      -3.34960000      -1.71900000
C        1.85860000      -2.68550000      -0.49250000
O        2.06290000      -2.76600000       0.68360000
H        0.96950000       2.05640000      -0.18310000
H       -0.70910000       1.93640000      -0.72360000
H       -0.33540000       1.94720000       1.00540000
H        0.81710000      -0.27320000       0.79280000
H       -0.85050000      -0.38720000       0.26880000
H       -0.13230000      -0.19620000      -2.12220000
H        1.54530000      -0.03440000      -1.62080000
H       -0.20350000      -2.49410000      -1.07160000
H        0.86570000      -3.14290000      -3.41100000
H        3.18930000      -2.63060000      -3.47180000
H        2.96690000      -4.29390000      -1.81720000
