19
Properties=species:S:1:pos:R:3 gdb_122106=T pbc="F F F"
O       -0.09540000       1.49840000      -0.36210000
C       -0.07750000       0.12230000      -0.03270000
C       -1.48700000      -0.44570000       0.05780000
O       -2.09020000      -0.20600000      -1.20720000
C       -3.44970000      -0.63260000      -1.33260000
C       -4.38610000       0.37090000      -0.62440000
O       -4.14370000       1.68990000      -1.04630000
C       -3.74820000      -0.74890000      -2.75740000
C       -4.02990000      -0.86080000      -3.91910000
H       -0.49260000       1.55720000      -1.23800000
H        0.50150000      -0.45900000      -0.76580000
H        0.41730000       0.03040000       0.93940000
H       -1.46170000      -1.52440000       0.27810000
H       -2.03720000       0.06050000       0.86320000
H       -3.56960000      -1.62070000      -0.85870000
H       -5.42470000       0.12880000      -0.86760000
H       -4.26500000       0.26040000       0.46530000
H       -3.18810000       1.81790000      -1.00460000
H       -4.27370000      -0.95340000      -4.94870000
