22
Properties=species:S:1:pos:R:3 gdb_36982=T pbc="F F F"
C        0.07380000       1.43190000      -0.14370000
C        0.10400000      -0.06150000       0.18400000
N       -1.24800000      -0.60210000       0.26960000
C       -1.82140000      -1.11320000      -0.97110000
C       -1.37940000      -2.04340000       0.10450000
C        1.46100000       2.04720000      -0.16650000
C        1.57370000       3.58850000      -0.18870000
C        2.35150000       3.40820000       1.13000000
O        2.11810000       1.98510000       1.12680000
H       -0.39770000       1.59060000      -1.12320000
H       -0.54310000       1.94770000       0.60080000
H        0.71450000      -0.59720000      -0.56840000
H        0.59080000      -0.20410000       1.15460000
H       -2.87660000      -0.90920000      -1.12940000
H       -1.20970000      -1.07310000      -1.87200000
H       -0.47440000      -2.62060000      -0.08160000
H       -2.10530000      -2.53140000       0.74890000
H        2.08220000       1.55260000      -0.92860000
H        2.13040000       4.01920000      -1.02210000
H        0.61690000       4.10540000      -0.08870000
H        3.42180000       3.64580000       1.07510000
H        1.92860000       3.89150000       2.01850000
