12
Properties=species:S:1:pos:R:3 gdb_130099=T pbc="F F F"
N        0.03210000       1.27010000       0.15160000
C       -0.04890000      -0.08140000       0.04810000
N       -1.12580000      -0.81140000       0.00360000
N       -0.57780000      -2.08000000       0.00500000
N       -1.03750000      -3.34600000      -0.04460000
C        0.12310000      -4.01100000      -0.04580000
N        1.27890000      -3.26300000      -0.00640000
C        0.75350000      -2.06480000       0.02460000
O        1.15000000      -0.76260000       0.05890000
H        0.86200000       1.68890000      -0.24110000
H       -0.82770000       1.75550000      -0.05660000
H        0.14200000      -5.08940000      -0.07480000
