18
Properties=species:S:1:pos:R:3 gdb_85619=T pbc="F F F"
O        0.09950000       1.39460000       0.23570000
C        0.03380000      -0.00700000       0.00360000
C       -1.41780000      -0.51740000       0.09860000
C       -2.22790000       0.11420000      -1.01960000
O       -2.81720000       1.17420000      -0.87320000
N       -2.18600000      -0.53960000      -2.21880000
C       -1.14640000      -1.51190000      -2.55760000
C        0.27210000      -1.00920000      -2.35310000
C        0.74580000      -0.36740000      -1.28400000
H       -0.64940000       1.80500000      -0.21810000
H        0.60190000      -0.45750000       0.82820000
H       -1.43650000      -1.61010000       0.05810000
H       -1.84260000      -0.18840000       1.04800000
H       -2.57890000      -0.00210000      -2.97940000
H       -1.31600000      -2.43990000      -1.99530000
H       -1.28980000      -1.77470000      -3.60800000
H        0.95200000      -1.19470000      -3.18150000
H        1.77960000      -0.02880000      -1.30340000
