13
Properties=species:S:1:pos:R:3 gdb_133340=T pbc="F F F"
N        0.04200000       1.36170000       0.16690000
C       -0.06960000       0.00080000       0.06320000
C       -1.21640000      -0.72020000       0.03810000
C       -1.15700000      -2.15430000      -0.00270000
N       -2.17990000      -2.93150000      -0.02850000
C        0.24270000      -2.62320000      -0.01610000
F        0.41960000      -3.93380000      -0.05200000
N        1.32010000      -1.93900000      -0.00140000
O        1.16970000      -0.55620000       0.03660000
H        0.92140000       1.74780000      -0.14310000
H       -0.76930000       1.89410000      -0.10400000
H       -2.17930000      -0.22730000       0.05740000
H       -1.87980000      -3.90650000      -0.05640000
