14
Properties=species:S:1:pos:R:3 gdb_13060=T pbc="F F F"
O       -0.05210000       0.03310000      -0.11550000
C        0.01150000       1.21870000      -0.22190000
O        1.01190000       1.93870000       0.34230000
C        1.01100000       3.33380000       0.10520000
C        2.19430000       4.11790000       0.72630000
C        2.39110000       4.89250000      -0.61510000
C        1.50100000       3.82950000      -1.27820000
O        1.34730000       3.41530000      -2.38740000
H       -0.71810000       1.84460000      -0.76690000
H        0.04040000       3.78000000       0.36010000
H        1.96850000       4.70810000       1.61370000
H        3.02640000       3.44360000       0.93540000
H        1.92040000       5.88060000      -0.62230000
H        3.40320000       4.98380000      -1.01360000
