17
Properties=species:S:1:pos:R:3 gdb_4494=T pbc="F F F"
C        0.00010000       1.48430000       0.06110000
C        0.02160000      -0.00460000      -0.04550000
C        0.02400000      -0.82820000      -1.15260000
C        0.05080000      -2.17110000      -0.67980000
O        0.06220000      -3.32560000      -1.41840000
C        0.06420000      -2.15420000       0.69570000
C        0.09180000      -3.27210000       1.68030000
N        0.04570000      -0.81590000       1.05910000
H        0.88850000       1.87820000       0.57150000
H       -0.02850000       1.92820000      -0.93670000
H       -0.87800000       1.84950000       0.60930000
H        0.00830000      -0.50140000      -2.18250000
H        0.04920000      -3.08740000      -2.34900000
H        0.98200000      -3.24640000       2.32310000
H       -0.78640000      -3.27540000       2.33980000
H        0.10230000      -4.22190000       1.14090000
H        0.04980000      -0.48870000       2.00930000
