14
Properties=species:S:1:pos:R:3 gdb_125388=T pbc="F F F"
C       -0.01820000       1.53540000      -0.00960000
C       -0.00710000       0.04160000       0.04150000
C       -0.03380000      -0.80880000      -1.02090000
O       -0.01370000      -2.15880000      -0.63930000
C        0.02610000      -2.09070000       0.68670000
C        0.03350000      -0.82670000       1.20020000
C        0.07740000      -1.09760000       2.59390000
N        0.09370000      -2.38970000       2.85110000
O        0.05930000      -3.05890000       1.58100000
H        0.87580000       1.95540000       0.46460000
H       -0.05230000       1.89390000      -1.04160000
H       -0.88650000       1.94420000       0.51890000
H       -0.06710000      -0.64930000      -2.08550000
H        0.09870000      -0.42500000       3.44030000
