21
Properties=species:S:1:pos:R:3 gdb_109878=T pbc="F F F"
C       -0.24030000       1.34620000       0.12140000
O        0.15890000      -0.00030000      -0.07270000
C        0.73890000      -0.58120000       1.07540000
C       -0.27860000      -1.24530000       2.07830000
O       -1.64370000      -1.06060000       1.79460000
C        0.37570000      -2.60120000       1.79950000
C        0.35060000      -2.90070000       0.32630000
C        1.38880000      -1.94100000       0.83650000
C        2.86680000      -2.15770000       0.67660000
H        0.62080000       1.98330000       0.37320000
H       -0.67120000       1.69280000      -0.82120000
H       -0.99140000       1.43740000       0.91640000
H        1.41540000       0.13260000       1.56560000
H       -0.12240000      -0.91700000       3.10900000
H       -1.71920000      -1.00740000       0.83410000
H        0.55490000      -3.37500000       2.53690000
H        0.73530000      -3.87840000       0.05280000
H       -0.46410000      -2.56190000      -0.30650000
H        3.21660000      -1.78890000      -0.29490000
H        3.43660000      -1.63680000       1.45480000
H        3.11770000      -3.22180000       0.73450000
