15
Properties=species:S:1:pos:R:3 gdb_22090=T pbc="F F F"
N        0.58670000       1.06450000       0.75730000
C        0.21650000       0.04210000      -0.07570000
N        0.98100000      -0.89900000      -0.49120000
H       -0.02570000      -1.81510000      -1.66720000
H        1.92740000      -0.84380000      -0.11770000
C       -1.23540000       0.13080000      -0.51480000
C       -1.73430000      -0.82270000      -1.57700000
N       -0.99060000      -1.79460000      -2.07640000
O       -1.32370000      -2.62780000      -2.94480000
C       -3.06590000      -0.66690000      -2.03470000
N       -4.16380000      -0.46770000      -2.35100000
H        1.45900000       0.99360000       1.25580000
H       -0.11860000       1.63820000       1.18920000
H       -1.85630000       0.01560000       0.38620000
H       -1.41770000       1.15900000      -0.85460000
