19
Properties=species:S:1:pos:R:3 gdb_113781=T pbc="F F F"
C       -0.49170000      -0.95150000       3.40860000
C       -0.28110000      -0.85290000       1.91530000
C        0.85920000      -0.10410000       1.35810000
O        0.88340000      -1.53030000       1.41940000
C       -1.49400000      -1.08370000       1.03510000
O       -2.77810000      -1.11000000       1.66040000
C       -2.50780000      -0.06630000       0.70750000
C       -2.50880000       1.33400000       1.26670000
O       -3.82100000       1.74670000       1.60600000
H        0.46240000      -0.82940000       3.92670000
H       -1.19170000      -0.19150000       3.76450000
H       -0.90940000      -1.92870000       3.66860000
H        0.79080000       0.31920000       0.35630000
H        1.54760000       0.40830000       2.02970000
H       -1.32890000      -1.88000000       0.30810000
H       -3.06090000      -0.18020000      -0.22610000
H       -1.82740000       1.40140000       2.12630000
H       -2.15270000       2.03630000       0.50490000
H       -4.16820000       1.09140000       2.22200000
