19
Properties=species:S:1:pos:R:3 gdb_1275=T pbc="F F F"
C       -0.04800000       1.55570000       0.08450000
C        0.08860000       0.03130000       0.04280000
C        0.67700000      -0.47800000      -1.27680000
C        0.81550000      -1.99890000      -1.32380000
C        1.39920000      -2.52970000      -2.62780000
C        1.55830000      -4.03820000      -2.72710000
O        1.71880000      -1.79510000      -3.53440000
H        0.92530000       2.04270000      -0.04130000
H       -0.70170000       1.91550000      -0.71770000
H       -0.47000000       1.89420000       1.03590000
H        0.71960000      -0.30310000       0.87750000
H       -0.89520000      -0.42940000       0.20620000
H        0.05300000      -0.14940000      -2.11600000
H        1.65990000      -0.02370000      -1.44790000
H        1.44660000      -2.36240000      -0.49940000
H       -0.15710000      -2.48780000      -1.16620000
H        0.58930000      -4.53410000      -2.60070000
H        1.98230000      -4.30350000      -3.69630000
H        2.20930000      -4.40770000      -1.92660000
