19
Properties=species:S:1:pos:R:3 gdb_82450=T pbc="F F F"
C       -0.02860000       1.60130000      -0.06590000
C        0.08130000       0.08330000      -0.00740000
C        1.13890000      -0.70650000      -0.85790000
C        2.53200000      -0.12560000      -0.46360000
C        2.23430000      -0.73430000       0.89750000
O        3.03340000      -0.82410000       2.02390000
C        1.25960000      -1.75380000       0.32150000
C        0.73130000      -0.61160000       1.17690000
O        0.26980000      -0.61940000       2.47180000
H        0.92570000       2.09400000       0.14010000
H       -0.37750000       1.93440000      -1.04970000
H       -0.74780000       1.95630000       0.67950000
H       -0.90080000      -0.37060000      -0.18650000
H        0.92690000      -0.96520000      -1.89180000
H        3.33660000      -0.66290000      -0.97720000
H        2.69630000       0.95340000      -0.55160000
H        3.69870000      -1.50720000       1.88870000
H        1.18510000      -2.82970000       0.38010000
H        1.04740000      -0.62080000       3.04680000
