14
Properties=species:S:1:pos:R:3 gdb_4891=T pbc="F F F"
C        0.17860000       1.22990000      -0.31210000
O       -0.39660000       0.13080000       0.40730000
C        0.46040000      -0.55020000       1.18460000
C        0.92820000      -1.79760000       1.08050000
O        1.74130000      -2.07500000       2.17630000
C        1.76230000      -0.96310000       2.99380000
N        2.33700000      -0.84390000       4.11500000
N        1.02410000       0.01230000       2.34190000
H        0.96580000       0.87610000      -0.98720000
H       -0.63350000       1.67530000      -0.88770000
H        0.59810000       1.97790000       0.36990000
H        0.80680000      -2.56850000       0.34240000
H        2.80050000      -1.71130000       4.37280000
H        0.62780000       0.78260000       2.85360000
