19
Properties=species:S:1:pos:R:3 gdb_101537=T pbc="F F F"
C       -0.15370000       1.45460000      -0.68200000
C       -0.11160000       0.10450000       0.03760000
C       -1.47340000      -0.59850000       0.06430000
O       -1.99110000      -0.81310000      -1.24440000
C       -1.42500000      -1.91750000       0.86520000
C       -2.79950000      -2.56860000       0.89750000
O       -3.65720000      -2.22580000       1.68160000
C       -3.03780000      -3.61490000      -0.08270000
C       -3.21390000      -4.49860000      -0.88130000
H        0.84170000       1.90510000      -0.73370000
H       -0.53430000       1.33690000      -1.69980000
H       -0.81300000       2.15690000      -0.16060000
H        0.61520000      -0.56050000      -0.45180000
H        0.23980000       0.23440000       1.06870000
H       -2.21050000       0.05680000       0.54370000
H       -1.39400000      -1.41110000      -1.70880000
H       -0.68660000      -2.59480000       0.42050000
H       -1.13180000      -1.70470000       1.89780000
H       -3.39380000      -5.27660000      -1.58300000
