21
Properties=species:S:1:pos:R:3 gdb_122494=T pbc="F F F"
C       -0.14900000       1.52660000      -0.29250000
C       -0.03750000       0.05290000       0.05860000
O       -1.32510000      -0.52750000      -0.01820000
C       -1.33390000      -1.90310000       0.29310000
C       -2.76560000      -2.37540000       0.23290000
C       -3.37140000      -2.88120000      -1.02930000
C       -3.13970000      -3.85480000       0.12290000
C       -2.11360000      -4.91020000      -0.03200000
O       -2.17740000      -6.00040000       0.48170000
H        0.83340000       2.00540000      -0.24290000
H       -0.54590000       1.65090000      -1.30390000
H       -0.82020000       2.03710000       0.40390000
H        0.65150000      -0.45940000      -0.63470000
H        0.37640000      -0.07470000       1.07330000
H       -0.69810000      -2.46020000      -0.41450000
H       -0.91730000      -2.07250000       1.30100000
H       -3.42030000      -1.80980000       0.88950000
H       -4.39830000      -2.63230000      -1.26920000
H       -2.71970000      -2.98490000      -1.89180000
H       -4.00190000      -4.17670000       0.69660000
H       -1.25620000      -4.63970000      -0.69070000
