18
Properties=species:S:1:pos:R:3 gdb_79282=T pbc="F F F"
C       -0.16600000       1.47850000      -0.01120000
N        0.02480000       0.03370000       0.01320000
C        0.79680000      -0.48360000      -1.11380000
C        2.24740000      -0.60950000      -0.72160000
C        2.33770000      -0.11530000       0.72450000
C        0.87460000      -0.48840000       1.10900000
C        0.89050000      -1.98480000       0.71070000
O        0.64840000      -2.95690000       1.37090000
C        1.32620000      -1.84890000      -0.71600000
H        0.76520000       2.06550000      -0.07210000
H       -0.78210000       1.73810000      -0.87830000
H       -0.70910000       1.78490000       0.88780000
H        0.45130000      -0.26780000      -2.11610000
H        3.06010000      -0.53130000      -1.43100000
H        3.06410000      -0.66940000       1.32630000
H        2.56090000       0.95200000       0.80090000
H        0.51450000      -0.25720000       2.10750000
H        1.43060000      -2.67890000      -1.39880000
