21
Properties=species:S:1:pos:R:3 gdb_41529=T pbc="F F F"
C        0.00370000       1.51700000      -0.19460000
C        1.51820000       1.53420000       0.19220000
C        1.33800000       0.10900000       0.67810000
C        1.87730000      -0.64710000       1.62530000
C        1.33120000      -1.99820000       2.02150000
C        0.37510000      -2.63180000       0.99860000
O       -0.93950000      -2.10250000       0.93240000
C       -1.09690000      -0.70210000       0.74860000
C        0.01190000      -0.03970000      -0.05570000
H       -0.61750000       1.98740000       0.57310000
H       -0.26780000       1.92510000      -1.17000000
H        2.16090000       1.60420000      -0.69300000
H        1.85240000       2.28060000       0.91800000
H        2.74990000      -0.29070000       2.17050000
H        2.16810000      -2.69690000       2.16010000
H        0.83290000      -1.94200000       3.00040000
H        0.85620000      -2.60670000       0.00880000
H        0.22420000      -3.68480000       1.25660000
H       -2.06780000      -0.57430000       0.25390000
H       -1.15740000      -0.19920000       1.72740000
H        0.11240000      -0.51730000      -1.03790000
