10
Properties=species:S:1:pos:R:3 gdb_1204=T pbc="F F F"
N       -0.01870000       1.32520000       0.23630000
C        0.01780000       0.05660000      -0.25340000
O        0.99100000      -0.45540000      -0.76740000
C       -1.24520000      -0.66700000      -0.12500000
C       -2.25240000      -1.32930000      -0.04070000
C       -3.46350000      -2.11410000       0.02430000
O       -3.91310000      -2.57870000       1.04450000
H        0.83330000       1.86260000       0.22540000
H       -0.81740000       1.67580000       0.73660000
H       -3.95990000      -2.25840000      -0.95570000
