21
Properties=species:S:1:pos:R:3 gdb_96009=T pbc="F F F"
C       -0.11190000       1.57730000      -0.10260000
C        0.01410000       0.06880000       0.07570000
O        0.67300000      -0.48860000      -1.06960000
C        1.88830000      -1.07130000      -0.63710000
O        2.18160000      -0.54320000       0.62630000
C        0.90680000      -0.40100000       1.25520000
C        1.01370000       0.49820000       2.45110000
C        0.00040000       0.36910000       3.56460000
C        1.42170000      -0.07900000       3.78210000
H        0.87550000       2.04690000      -0.13990000
H       -0.62470000       1.79060000      -1.04420000
H       -0.68790000       2.02430000       0.71360000
H       -0.98350000      -0.38110000       0.15560000
H        1.77710000      -2.17060000      -0.58740000
H        2.69590000      -0.81050000      -1.32950000
H        0.55400000      -1.39460000       1.58380000
H        1.37000000       1.49830000       2.22920000
H       -0.33910000       1.27620000       4.05100000
H       -0.76380000      -0.39560000       3.47140000
H        1.61750000      -1.14490000       3.82980000
H        2.06050000       0.52010000       4.42050000
