22
Properties=species:S:1:pos:R:3 gdb_122072=T pbc="F F F"
C       -0.05820000       1.58360000       0.05500000
C       -0.00750000       0.05420000       0.00880000
C        0.70910000      -0.48290000      -1.23500000
C        0.76040000      -2.01330000      -1.28010000
C        1.48910000      -2.58220000      -2.51520000
C        1.61720000      -4.12490000      -2.45970000
O        2.32520000      -4.65770000      -3.55370000
C        0.81390000      -2.21390000      -3.76370000
N        0.27420000      -1.97930000      -4.75950000
H        0.94950000       2.01350000       0.06020000
H       -0.58520000       1.98800000      -0.81610000
H       -0.57580000       1.93770000       0.95170000
H        0.49440000      -0.32470000       0.90910000
H       -1.02860000      -0.34800000       0.03870000
H        0.20650000      -0.10830000      -2.13580000
H        1.73230000      -0.08390000      -1.26710000
H        1.27810000      -2.39260000      -0.39020000
H       -0.25750000      -2.42070000      -1.24770000
H        2.50500000      -2.17010000      -2.56300000
H        2.18760000      -4.38770000      -1.56370000
H        0.61360000      -4.56550000      -2.36090000
H        1.80350000      -4.50890000      -4.35080000
