18
Properties=species:S:1:pos:R:3 gdb_126909=T pbc="F F F"
C       -0.09590000       1.51700000      -0.09140000
C       -0.30360000       0.03750000      -0.39560000
N       -1.32970000      -0.53500000       0.49400000
C       -1.58690000      -1.90690000       0.29730000
C       -2.79770000      -2.44500000      -0.09630000
N       -4.03090000      -1.84240000      -0.30180000
N       -2.55840000      -3.77380000      -0.15060000
N       -1.26450000      -4.05910000       0.18360000
N       -0.69350000      -2.92800000       0.45750000
H        0.64360000       1.95090000      -0.77070000
H       -1.03320000       2.07230000      -0.19410000
H        0.27080000       1.66110000       0.93170000
H       -0.65550000      -0.09080000      -1.42580000
H        0.65060000      -0.50450000      -0.31800000
H       -1.06630000      -0.35980000       1.45970000
H       -3.92260000      -0.83620000      -0.23020000
H       -4.47030000      -2.08120000      -1.18300000
H       -3.19390000      -4.52630000      -0.35900000
