17
Properties=species:S:1:pos:R:3 gdb_99397=T pbc="F F F"
O       -1.11450000       1.18450000       0.74160000
C       -1.39160000      -0.18190000       0.69190000
C       -1.15970000      -0.73630000      -0.70460000
O       -0.79110000      -0.00080000      -1.59410000
C       -1.32270000      -2.23630000      -0.93690000
O       -2.13050000      -2.88710000       0.01780000
C       -3.51350000      -2.85030000      -0.26120000
C       -4.22410000      -3.70630000       0.77560000
O       -5.41920000      -3.79740000       0.84860000
H       -0.83430000       1.42350000      -0.15630000
H       -0.76240000      -0.75350000       1.39450000
H       -2.43160000      -0.38980000       0.98930000
H       -1.67420000      -2.39770000      -1.96500000
H       -0.32110000      -2.67870000      -0.85870000
H       -3.92840000      -1.83090000      -0.22800000
H       -3.73210000      -3.25860000      -1.26150000
H       -3.53290000      -4.24880000       1.45680000
