23
Properties=species:S:1:pos:R:3 gdb_121361=T pbc="F F F"
C        0.47510000       1.54210000       0.07500000
C        0.24470000       0.04120000       0.01670000
O        0.76690000      -0.53630000       1.19730000
C        0.59230000      -1.93930000       1.30070000
C        1.66300000      -2.72180000       0.51880000
O        2.74640000      -2.96710000       1.41420000
C        2.42880000      -2.44410000       2.70020000
C        0.89920000      -2.35890000       2.75070000
C        0.32700000      -1.45580000       3.83850000
H        1.54420000       1.76280000       0.14130000
H        0.07570000       2.02430000      -0.82220000
H       -0.01830000       1.97240000       0.95100000
H       -0.83210000      -0.18460000      -0.06580000
H        0.73040000      -0.38350000      -0.87650000
H       -0.42640000      -2.21280000       0.98830000
H        1.26830000      -3.68200000       0.15720000
H        2.02070000      -2.15390000      -0.34880000
H        2.85010000      -3.11450000       3.45640000
H        2.87290000      -1.44570000       2.83420000
H        0.50990000      -3.37780000       2.87350000
H        0.66180000      -0.42540000       3.70280000
H       -0.76760000      -1.45920000       3.81910000
H        0.64170000      -1.79700000       4.83030000
