22
Properties=species:S:1:pos:R:3 gdb_91822=T pbc="F F F"
C        0.17270000       1.61970000      -0.03030000
C       -0.02500000       0.09830000      -0.01590000
C        0.57920000      -0.55230000      -1.27960000
C        0.66350000      -2.07130000      -1.18750000
N        1.99040000      -2.63260000      -0.83360000
C        0.86710000      -2.70930000       0.13800000
C        0.26420000      -4.06660000       0.43400000
C        0.97480000      -1.78540000       1.30330000
C        0.55060000      -0.52440000       1.23910000
H        1.23830000       1.87420000      -0.00960000
H       -0.26060000       2.06400000      -0.93250000
H       -0.30170000       2.09070000       0.83710000
H       -1.11000000      -0.09300000      -0.01710000
H       -0.00610000      -0.25790000      -2.15820000
H        1.59310000      -0.16310000      -1.42300000
H        0.07450000      -2.63070000      -1.91130000
H        2.10310000      -3.54180000      -1.28020000
H        0.16380000      -4.66110000      -0.48040000
H        0.89130000      -4.62840000       1.13670000
H       -0.72940000      -3.96860000       0.88470000
H        1.39120000      -2.18770000       2.22430000
H        0.61420000       0.11260000       2.11920000
