19
Properties=species:S:1:pos:R:3 gdb_30058=T pbc="F F F"
C        0.55490000       1.30400000       0.17500000
N        0.07070000      -0.04600000      -0.01530000
C        0.27760000      -0.83220000      -1.12820000
C       -0.32730000      -2.04610000      -0.91760000
C       -0.91880000      -2.01120000       0.37720000
C       -0.65070000      -0.76670000       0.90990000
N       -1.02660000      -0.13940000       2.11030000
C       -1.46860000      -0.98070000       3.21100000
C       -0.15350000      -0.29150000       3.29050000
H        1.51530000       1.32630000       0.70490000
H        0.68410000       1.78070000      -0.79920000
H       -0.17440000       1.87100000       0.75730000
H        0.83600000      -0.44980000      -1.96770000
H       -0.35330000      -2.86910000      -1.61520000
H       -1.49860000      -2.79100000       0.84500000
H       -2.32200000      -0.60540000       3.76780000
H       -1.45040000      -2.05780000       3.06800000
H        0.73520000      -0.90700000       3.17610000
H       -0.03330000       0.60180000       3.89580000
