21
Properties=species:S:1:pos:R:3 gdb_89503=T pbc="F F F"
C       -0.22350000       1.59200000      -0.24470000
C       -0.07200000       0.07670000      -0.07140000
C        1.13610000      -0.51050000      -0.89680000
C        2.00840000      -0.55880000       0.42080000
O        2.97910000       0.46160000       0.55830000
C        0.68330000      -0.40280000       1.15160000
C       -0.08460000      -1.00680000       2.05360000
C       -1.54530000      -0.90650000       1.61990000
C       -1.43480000      -0.64340000       0.08260000
H        0.74050000       2.11110000      -0.20550000
H       -0.67240000       1.82400000      -1.21740000
H       -0.86480000       2.01960000       0.53360000
H        0.93680000      -1.51010000      -1.29110000
H        1.54710000       0.12460000      -1.68700000
H        2.54050000      -1.49680000       0.59980000
H        2.52680000       1.28960000       0.74530000
H        0.24180000      -1.58160000       2.91340000
H       -2.09730000      -1.82630000       1.84100000
H       -2.07970000      -0.09820000       2.13880000
H       -2.28050000      -0.07170000      -0.31260000
H       -1.41460000      -1.60540000      -0.44160000
