20
Properties=species:S:1:pos:R:3 gdb_36775=T pbc="F F F"
N       -0.00870000      -1.15320000       0.24310000
C       -0.01290000       0.00060000       0.17820000
C        0.00130000       1.45930000       0.09090000
C        1.42360000       2.03440000      -0.05450000
C        1.41590000       3.56250000      -0.16220000
C        2.82110000       4.13650000      -0.22720000
C        3.00090000       5.65970000      -0.03900000
C        3.89020000       5.26150000       1.15560000
O        3.58020000       3.86290000       0.97670000
H       -0.62070000       1.75980000      -0.76100000
H       -0.48110000       1.86470000       0.98820000
H        2.02780000       1.73800000       0.80810000
H        1.89890000       1.59720000      -0.93990000
H        0.86390000       3.88030000      -1.05780000
H        0.89920000       3.99450000       0.70500000
H        3.34710000       3.73840000      -1.10800000
H        3.49430000       6.19110000      -0.85370000
H        2.08280000       6.18640000       0.23060000
H        4.96110000       5.46030000       1.02360000
H        3.58190000       5.62660000       2.14180000
