16
Properties=species:S:1:pos:R:3 gdb_69756=T pbc="F F F"
C       -0.09140000       1.52810000       0.05590000
C        0.15020000       0.05680000      -0.00320000
O       -0.77150000      -0.82170000       0.65830000
C        0.61540000      -0.94050000       0.97870000
C        1.28730000      -1.79570000      -0.14810000
N        0.46970000      -2.79760000      -0.82540000
C       -0.11280000      -1.90480000      -1.72020000
O       -0.96480000      -2.03470000      -2.55160000
C        0.77960000      -0.75090000      -1.18410000
H        0.81370000       2.08070000      -0.21520000
H       -0.88470000       1.81460000      -0.64310000
H       -0.39770000       1.82270000       1.06300000
H        0.90030000      -0.85060000       2.02150000
H        2.34260000      -2.03340000      -0.01750000
H        0.05550000      -3.64200000      -0.45440000
H        1.44680000      -0.22210000      -1.86090000
