22
Properties=species:S:1:pos:R:3 gdb_98891=T pbc="F F F"
C        0.02390000       1.49000000      -0.27850000
N       -0.07280000       0.04400000      -0.26200000
C       -1.07630000      -0.62100000       0.38160000
O       -1.96990000      -0.04680000       0.98340000
C       -0.99910000      -2.14240000       0.31630000
C       -0.78820000      -2.77120000       1.71120000
C       -1.24300000      -4.22330000       1.51690000
C       -2.49710000      -4.10620000       0.62220000
C       -2.32570000      -2.78140000      -0.17630000
H       -0.02080000       1.88290000      -1.30060000
H       -0.82380000       1.87550000       0.28920000
H        0.95380000       1.83500000       0.18780000
H        0.63000000      -0.49420000      -0.73990000
H       -0.17420000      -2.45250000      -0.33810000
H        0.24160000      -2.67860000       2.06950000
H       -1.44060000      -2.25410000       2.42360000
H       -0.45850000      -4.78900000       0.99900000
H       -1.44000000      -4.73890000       2.46130000
H       -2.61450000      -4.97390000      -0.03270000
H       -3.39840000      -4.05530000       1.24080000
H       -3.14450000      -2.09110000       0.03880000
H       -2.30950000      -2.94480000      -1.25730000
