22
Properties=species:S:1:pos:R:3 gdb_102173=T pbc="F F F"
C       -0.92040000       1.15190000       0.44830000
O        0.01570000       0.16420000       0.05030000
C        0.68440000      -0.50860000       1.10410000
C        0.10520000      -1.93970000       1.22200000
C       -1.32400000      -1.94840000       1.52310000
N       -2.45120000      -1.95040000       1.77870000
C        2.19620000      -0.51790000       0.79790000
C        2.71180000       0.91950000       0.64310000
C        3.01290000      -1.27230000       1.85760000
H       -0.43740000       1.95540000       1.02320000
H       -1.33450000       1.57740000      -0.46890000
H       -1.73920000       0.72920000       1.04260000
H        0.51880000       0.01730000       2.05660000
H        0.26810000      -2.46230000       0.27280000
H        0.62030000      -2.50470000       2.00420000
H        2.31660000      -1.02750000      -0.16830000
H        2.63420000       1.46830000       1.58970000
H        3.76530000       0.92020000       0.34730000
H        2.14110000       1.45900000      -0.11480000
H        2.78790000      -2.34210000       1.88730000
H        4.08250000      -1.17480000       1.64820000
H        2.83760000      -0.86150000       2.85930000
