18
Properties=species:S:1:pos:R:3 gdb_11731=T pbc="F F F"
C        0.08770000       1.50760000      -0.17590000
C       -0.09810000       0.00400000       0.07260000
C        0.65800000      -0.48380000       1.27760000
C        2.07980000      -0.91670000       1.25850000
C        1.02750000      -1.95220000       1.65430000
C        0.56340000      -1.67820000       3.04830000
O        0.31930000      -2.37530000       3.99270000
C        0.26440000      -0.18550000       2.73970000
H        1.14160000       1.75160000      -0.34330000
H       -0.47890000       1.83180000      -1.05380000
H       -0.25820000       2.09530000       0.68100000
H       -1.16580000      -0.21680000       0.19960000
H        0.23150000      -0.55810000      -0.80990000
H        2.51310000      -1.10040000       0.27960000
H        2.79050000      -0.55310000       1.99610000
H        0.91550000      -2.87650000       1.10000000
H        0.84380000       0.57670000       3.26900000
H       -0.80300000       0.01240000       2.88080000
