17
Properties=species:S:1:pos:R:3 gdb_69926=T pbc="F F F"
O       -0.22110000       1.36040000       0.13340000
C       -0.07990000      -0.01730000      -0.02000000
C       -0.49100000      -0.69780000      -1.29870000
C       -1.28340000      -0.91240000      -0.02090000
C       -0.87130000      -2.00340000       1.02300000
O       -0.13890000      -1.20090000       1.96910000
C        0.84530000      -0.75180000       1.01930000
C        1.32650000      -2.08370000       0.44330000
C        0.25100000      -2.87060000       0.44770000
H        0.46020000       1.78970000      -0.39500000
H       -0.96800000      -0.05150000      -2.03020000
H        0.10510000      -1.50170000      -1.71420000
H       -2.27730000      -0.49050000       0.05660000
H       -1.70340000      -2.50970000       1.50910000
H        1.57530000      -0.09690000       1.49240000
H        2.31150000      -2.27910000       0.04250000
H        0.13560000      -3.86810000       0.04700000
