20
Properties=species:S:1:pos:R:3 gdb_11377=T pbc="F F F"
C        0.03020000       1.46820000       0.27580000
C       -0.04420000      -0.01490000      -0.12960000
C       -1.43760000      -0.57000000      -0.10300000
C       -2.14430000      -1.03120000      -1.14100000
C       -3.53260000      -1.47210000      -0.74190000
C       -3.41580000      -1.60480000       0.79800000
O       -3.11800000      -2.94120000       1.18280000
C       -2.26440000      -0.63880000       1.16980000
H        1.06280000       1.82870000       0.24070000
H       -0.56950000       2.08770000      -0.39860000
H       -0.34260000       1.62380000       1.29300000
H        0.37950000      -0.14190000      -1.13230000
H        0.59120000      -0.59520000       0.55480000
H       -1.78580000      -1.06040000      -2.16500000
H       -4.28380000      -0.72100000      -1.02560000
H       -3.85170000      -2.42190000      -1.18480000
H       -4.34850000      -1.36540000       1.31430000
H       -2.30730000      -3.19290000       0.72510000
H       -1.71180000      -1.01450000       2.03880000
H       -2.64740000       0.35450000       1.44220000
