15
Properties=species:S:1:pos:R:3 gdb_126338=T pbc="F F F"
C        0.02410000       1.53450000      -0.18850000
C       -0.01530000       0.01750000       0.06580000
C       -1.40360000      -0.54610000       0.06420000
C       -2.16280000      -0.99990000       1.09510000
O       -3.36950000      -1.41090000       0.66410000
N       -3.45340000      -1.24080000      -0.69500000
C       -2.28900000      -0.72800000      -1.04770000
C       -2.01770000      -0.42320000      -2.41270000
N       -1.74140000      -0.15610000      -3.50350000
H        1.05640000       1.89520000      -0.17560000
H       -0.40660000       1.78260000      -1.16280000
H       -0.53820000       2.07540000       0.57830000
H        0.57980000      -0.49330000      -0.70000000
H        0.45670000      -0.21020000       1.02710000
H       -1.98630000      -1.09420000       2.15530000
