18
Properties=species:S:1:pos:R:3 gdb_92009=T pbc="F F F"
O       -0.16810000       0.92450000       1.36510000
C       -0.12180000      -0.07650000       0.36210000
C        0.70050000      -1.26740000       0.88820000
C       -0.32880000      -2.23570000       1.45600000
C       -1.37840000      -1.68700000       2.35010000
N       -1.67200000      -1.92980000       0.91680000
C       -1.50470000      -0.73040000       0.07210000
C       -2.70720000       0.18010000       0.18070000
O       -2.65470000       1.38830000       0.19830000
H       -0.82840000       1.56920000       1.07350000
H        0.30890000       0.33280000      -0.56180000
H        1.24370000      -1.74670000       0.06710000
H        1.43250000      -0.92570000       1.62430000
H       -0.06820000      -3.28860000       1.51230000
H       -1.91360000      -2.35270000       3.02060000
H       -1.26260000      -0.66410000       2.69240000
H       -1.50620000      -1.09000000      -0.97050000
H       -3.67940000      -0.35280000       0.23270000
