14
Properties=species:S:1:pos:R:3 gdb_845=T pbc="F F F"
C        0.03380000       1.45930000      -0.04630000
C       -0.05340000      -0.02330000       0.00720000
N       -1.09030000      -0.77740000      -0.17800000
C       -0.62390000      -2.08350000      -0.01540000
C       -1.52500000      -3.26340000      -0.15110000
C        0.69910000      -2.02840000       0.26500000
O        1.08310000      -0.71240000       0.28330000
H        0.74270000       1.78530000      -0.81450000
H       -0.95210000       1.86350000      -0.27650000
H        0.37430000       1.86900000       0.91030000
H       -1.97690000      -3.29720000      -1.14810000
H       -0.97940000      -4.19660000       0.01090000
H       -2.34530000      -3.21370000       0.57270000
H        1.46620000      -2.75680000       0.46390000
