21
Properties=species:S:1:pos:R:3 gdb_80569=T pbc="F F F"
C        0.28350000       1.54530000       0.10480000
C        0.13120000       0.03920000       0.00430000
C        0.75120000      -0.62150000      -1.24610000
C        1.22100000      -1.98810000      -0.74330000
C        0.84520000      -3.23990000      -1.49780000
C        2.50080000      -1.95450000       0.08900000
O        3.31410000      -0.82620000       0.12280000
C        1.15620000      -1.88870000       0.76640000
O        0.80370000      -0.57490000       1.12890000
H        1.33730000       1.83250000       0.02930000
H       -0.26370000       2.03480000      -0.70680000
H       -0.11060000       1.91380000       1.05590000
H       -0.93470000      -0.23060000       0.06530000
H        0.01790000      -0.72360000      -2.05080000
H        1.59230000      -0.02770000      -1.62020000
H        1.28790000      -3.24520000      -2.50050000
H        1.19840000      -4.13750000      -0.97950000
H       -0.24190000      -3.32940000      -1.61050000
H        3.06440000      -2.88280000       0.14980000
H        2.88300000      -0.21360000       0.73660000
H        0.77360000      -2.66690000       1.42080000
