12
Properties=species:S:1:pos:R:3 gdb_12163=T pbc="F F F"
N       -0.01660000       1.35830000       0.27460000
C        0.03590000      -0.02890000      -0.07210000
C       -1.31430000      -0.79500000      -0.27090000
O       -0.86640000      -1.26110000      -1.57850000
C        0.28890000      -0.50190000      -1.52370000
O        1.08040000      -0.32460000      -2.38690000
C       -1.61310000      -1.88840000       0.64220000
N       -1.83830000      -2.73680000       1.39330000
H        0.87310000       1.68890000       0.62590000
H       -0.27870000       1.94290000      -0.51160000
H        0.68730000      -0.56410000       0.62270000
H       -2.17510000      -0.12960000      -0.37150000
