18
Properties=species:S:1:pos:R:3 gdb_127084=T pbc="F F F"
C        0.04890000       1.42970000      -0.07160000
N       -0.03470000      -0.02170000       0.08880000
C        0.80740000      -0.52670000       1.17290000
C       -1.33180000      -0.55720000       0.03740000
C       -1.86100000      -1.37970000      -0.93890000
O       -1.22410000      -1.83380000      -2.04740000
C       -3.18600000      -1.64160000      -0.54060000
N       -3.47200000      -1.02590000       0.60900000
N       -2.34840000      -0.37640000       0.94550000
H        1.08780000       1.71480000      -0.26850000
H       -0.56420000       1.73830000      -0.92110000
H       -0.28820000       1.98670000       0.81990000
H        0.53080000      -0.12440000       2.16300000
H        0.73600000      -1.61580000       1.21280000
H        1.85010000      -0.25170000       0.98200000
H       -0.32970000      -1.46710000      -2.01340000
H       -3.93070000      -2.24440000      -1.03710000
H       -2.33420000       0.16470000       1.79270000
