21
Properties=species:S:1:pos:R:3 gdb_80852=T pbc="F F F"
C       -0.16010000       1.50330000      -0.03660000
C       -0.01970000      -0.01030000      -0.02950000
C        1.29450000      -0.59610000      -0.64440000
O        1.98370000      -0.21970000       0.59420000
C        0.71770000      -0.64400000       1.21470000
C        0.52490000      -0.20800000       2.63990000
C        0.68740000      -2.14980000       0.83260000
C        0.29130000      -3.27630000       1.72050000
C        1.08690000      -2.10130000      -0.44210000
H        0.77810000       1.98180000       0.25370000
H       -0.43700000       1.86090000      -1.03450000
H       -0.94610000       1.82860000       0.65440000
H       -0.94570000      -0.50730000      -0.33320000
H        1.75930000      -0.21620000      -1.55400000
H        0.55030000       0.88160000       2.72360000
H       -0.43740000      -0.56140000       3.02490000
H        1.31750000      -0.61640000       3.27540000
H       -0.73760000      -3.15960000       2.08540000
H        0.35520000      -4.23510000       1.19860000
H        0.93140000      -3.33180000       2.61020000
H        1.22020000      -2.89070000      -1.16790000
