18
Properties=species:S:1:pos:R:3 gdb_37371=T pbc="F F F"
C       -0.00900000       1.54010000       0.02610000
O        1.30110000       2.09150000      -0.05830000
C        2.14030000       1.51310000      -1.05260000
C        2.08030000      -0.02640000      -1.01550000
N        0.68600000      -0.46930000      -1.21970000
C        0.02570000      -0.00050000       0.01580000
C        1.02140000      -0.46170000       1.07930000
O        1.68180000      -1.69530000       0.79500000
C        2.32900000      -0.47810000       0.42310000
H       -0.43860000       1.94260000       0.95040000
H       -0.63410000       1.88580000      -0.81540000
H        1.84600000       1.85460000      -2.06020000
H        3.14600000       1.89760000      -0.84880000
H        2.74940000      -0.46870000      -1.76080000
H        0.28190000      -0.01770000      -2.03600000
H       -0.98040000      -0.42180000       0.11120000
H        0.87120000      -0.21450000       2.12570000
H        3.26260000      -0.24460000       0.92550000
