18
Properties=species:S:1:pos:R:3 gdb_122785=T pbc="F F F"
O       -1.55690000       1.53620000      -0.54150000
C       -0.63380000       0.52380000      -0.20080000
C       -1.28260000      -0.83450000       0.09400000
N       -1.95150000      -1.50480000      -1.02020000
C       -3.33380000      -1.21560000      -1.29260000
C       -3.62020000      -0.15980000      -2.36140000
O       -2.74720000       0.47410000      -2.92400000
C       -5.01870000       0.00160000      -2.70420000
C       -6.19290000       0.11520000      -2.94470000
H       -1.80770000       1.39420000      -1.46300000
H        0.13220000       0.39790000      -0.98410000
H       -0.11000000       0.85790000       0.70410000
H       -0.49880000      -1.50370000       0.47820000
H       -2.01500000      -0.71180000       0.90010000
H       -1.39720000      -1.46330000      -1.86760000
H       -3.86730000      -2.12040000      -1.63170000
H       -3.84840000      -0.90900000      -0.37390000
H       -7.22520000       0.23140000      -3.17190000
