17
Properties=species:S:1:pos:R:3 gdb_81492=T pbc="F F F"
C       -0.10210000       1.53430000       0.01250000
C       -0.04100000       0.00280000      -0.00260000
C       -1.35980000      -0.50610000      -0.37150000
N       -2.44040000      -0.75450000      -0.70020000
C        1.21800000      -0.68370000      -0.64420000
N        2.01260000      -0.10770000       0.50830000
C        0.77240000      -0.71350000       1.14070000
C        0.96570000      -1.95570000       0.23760000
O       -0.12250000      -2.80750000       0.07230000
H        0.86970000       1.94680000       0.27840000
H       -0.40030000       1.90860000      -0.97110000
H       -0.85200000       1.87190000       0.73380000
H        1.55550000      -0.60540000      -1.67900000
H        2.81610000      -0.71370000       0.70130000
H        0.58200000      -0.66630000       2.21310000
H        1.89360000      -2.50640000       0.45250000
H       -0.04250000      -3.27840000      -0.76380000
