16
Properties=species:S:1:pos:R:3 gdb_15884=T pbc="F F F"
C        0.11910000       1.47840000      -0.31170000
C       -0.06370000       0.04090000       0.12230000
O        0.69640000      -0.88940000      -0.74540000
C        1.40660000      -1.36930000       0.31620000
O        2.30930000      -2.15080000       0.31150000
C        0.69620000      -0.51260000       1.35570000
C        1.66090000       0.33360000       2.19310000
O        2.43790000      -0.50650000       3.02090000
H        1.17460000       1.75910000      -0.34510000
H       -0.30440000       1.62610000      -1.30920000
H       -0.39990000       2.14930000       0.38050000
H       -1.11790000      -0.24720000       0.10090000
H        0.07110000      -1.10790000       2.02590000
H        2.29280000       0.95490000       1.54110000
H        1.10860000       1.00770000       2.85560000
H        2.87860000      -1.14890000       2.44910000
