21
Properties=species:S:1:pos:R:3 gdb_53647=T pbc="F F F"
C       -0.03340000       1.52990000      -0.04940000
C       -0.00310000       0.07400000      -0.03570000
C        0.03160000      -1.12960000      -0.02580000
C        0.03850000      -2.58830000      -0.00890000
C       -1.37950000      -3.18350000       0.11300000
C       -1.41250000      -4.72920000       0.03640000
C       -0.68270000      -5.40920000       1.21350000
C       -2.79640000      -5.19550000      -0.04350000
C       -3.93890000      -5.56730000      -0.08840000
H        0.56560000       1.95000000       0.76630000
H        0.36330000       1.92890000      -0.98970000
H       -1.05560000       1.90810000       0.06370000
H        0.51060000      -2.96610000      -0.92680000
H        0.66680000      -2.93810000       0.81930000
H       -1.83400000      -2.85830000       1.05520000
H       -2.00180000      -2.77730000      -0.68980000
H       -0.90520000      -5.02710000      -0.89320000
H        0.37800000      -5.14450000       1.22620000
H       -1.12690000      -5.10630000       2.16680000
H       -0.75910000      -6.49670000       1.13590000
H       -4.94570000      -5.90050000      -0.13880000
