14
Properties=species:S:1:pos:R:3 gdb_34086=T pbc="F F F"
N       -0.09780000      -1.12690000       0.07970000
C       -0.04870000       0.02520000       0.01270000
C        0.03320000       1.46640000      -0.11070000
O       -0.77020000       2.15910000       0.94530000
C       -1.29710000       3.00600000      -0.04960000
C       -0.17240000       3.57890000      -0.99980000
C        1.21970000       3.38650000      -0.53540000
C        1.38580000       2.13570000      -0.08200000
C       -0.80080000       2.21990000      -1.20340000
H       -2.21010000       3.54190000       0.17410000
H       -0.46680000       4.40050000      -1.64080000
H        1.95370000       4.18070000      -0.48770000
H        2.24730000       1.71230000       0.41380000
H       -1.24960000       1.81880000      -2.10210000
