16
Properties=species:S:1:pos:R:3 gdb_19092=T pbc="F F F"
C       -0.04780000       1.57710000      -0.07150000
C        1.48190000       1.34480000       0.00200000
O        1.20860000       0.17380000       0.83610000
C        0.00980000       0.03120000       0.00890000
C        0.48760000      -0.51170000      -1.39480000
C        2.01730000      -0.74400000      -1.32130000
C        1.95970000       0.80180000      -1.40170000
O        0.76090000       0.65930000      -2.22890000
H       -0.41970000       1.99890000       0.86240000
H       -0.48070000       2.05760000      -0.94460000
H        2.16070000       2.05510000       0.47740000
H       -0.77040000      -0.56020000       0.49120000
H       -0.19110000      -1.22200000      -1.87020000
H        2.45020000      -1.22460000      -0.44820000
H        2.38930000      -1.16580000      -2.25520000
H        2.74000000       1.39330000      -1.88410000
