19
Properties=species:S:1:pos:R:3 gdb_37217=T pbc="F F F"
C       -0.07140000       1.41770000      -0.21090000
C        1.27870000       0.83250000       0.06850000
C        0.02090000      -0.06510000       0.10670000
C        0.49790000      -0.74140000      -1.13910000
C        0.11930000      -1.48950000      -2.16390000
C        1.05750000      -1.39630000      -3.35260000
O        1.47820000      -0.04860000      -3.57580000
C        2.19540000       0.58140000      -2.51370000
C        1.80970000       0.01640000      -1.13320000
H       -0.48320000       2.02920000       0.58630000
H       -0.34930000       1.73800000      -1.21120000
H        1.88520000       1.16800000       0.90040000
H       -0.49720000      -0.50050000       0.95170000
H       -0.81180000      -2.04250000      -2.22930000
H        1.93460000      -2.05610000      -3.23270000
H        0.55180000      -1.69390000      -4.27530000
H        3.27740000       0.47170000      -2.68510000
H        1.95400000       1.64770000      -2.58330000
H        2.59920000      -0.65510000      -0.77510000
