16
Properties=species:S:1:pos:R:3 gdb_24310=T pbc="F F F"
C       -0.10810000       1.53880000      -0.12540000
C        1.45590000       1.69150000       0.03310000
N        2.00990000       2.16570000       1.31460000
C        2.46680000       0.98920000       2.14110000
C        1.63970000      -0.11650000       1.52420000
C        1.36410000       0.22260000       0.24370000
N       -0.00750000      -0.01830000      -0.00730000
C       -0.38370000      -0.71390000       1.15440000
N        0.56450000      -0.82930000       2.05570000
H       -0.66530000       1.94870000       0.71520000
H       -0.53530000       1.82270000      -1.08690000
H        1.94870000       2.12910000      -0.83950000
H        2.72540000       2.87250000       1.20180000
H        3.55230000       0.82770000       2.07570000
H        2.21090000       1.13780000       3.19480000
H       -1.35740000      -1.17920000       1.24570000
