21
Properties=species:S:1:pos:R:3 gdb_81799=T pbc="F F F"
C       -0.10010000       1.55360000      -0.03380000
C        0.01150000       0.03350000      -0.00180000
C        1.13250000      -0.55880000      -0.88090000
N        1.27760000      -1.99590000      -0.67850000
C        1.86890000      -1.10020000       0.31750000
C        3.32410000      -1.21880000       0.65090000
C        0.76830000      -0.55720000       1.21730000
C        0.87610000       0.02010000       2.57120000
N        0.23010000      -1.29630000       2.36200000
H        0.87370000       2.02360000       0.13840000
H       -0.47280000       1.89570000      -1.00540000
H       -0.79070000       1.92080000       0.73280000
H       -0.97100000      -0.42170000      -0.18970000
H        1.51630000      -0.12210000      -1.79690000
H        0.42030000      -2.43720000      -0.34790000
H        3.89340000      -1.50220000      -0.23790000
H        3.72180000      -0.27440000       1.03720000
H        3.48470000      -1.99010000       1.41320000
H        1.81970000      -0.02040000       3.10940000
H        0.25410000       0.87630000       2.82120000
H       -0.78140000      -1.18750000       2.39950000
