16
Properties=species:S:1:pos:R:3 gdb_21002=T pbc="F F F"
C        0.14510000       1.37410000       0.02310000
N        0.02790000      -0.06800000      -0.01300000
C        0.11820000      -0.88270000      -1.09160000
C        0.02390000      -2.18450000      -0.62870000
C        0.06280000      -3.44360000      -1.44060000
O        1.06530000      -3.42330000      -2.45180000
C       -0.11570000      -2.03210000       0.76780000
N       -0.11400000      -0.75340000       1.13830000
H        1.14690000       1.68030000       0.34170000
H       -0.05310000       1.77520000      -0.97240000
H       -0.58590000       1.77300000       0.72840000
H        0.24420000      -0.49250000      -2.08920000
H        0.18400000      -4.30720000      -0.76790000
H       -0.87770000      -3.59700000      -1.98240000
H        1.89690000      -3.20280000      -2.01870000
H       -0.22620000      -2.80590000       1.51460000
