16
Properties=species:S:1:pos:R:3 gdb_49449=T pbc="F F F"
O        0.10210000       0.08290000      -0.51790000
C        0.08070000       1.24170000      -0.16660000
N        1.10490000       1.88600000       0.47890000
C        2.55380000       1.62980000       0.24740000
C        2.57960000       2.66980000      -0.93490000
C        3.89500000       3.42040000      -0.82720000
O        4.01840000       3.55460000       0.60650000
C        2.86690000       2.91670000       1.07970000
C        1.63280000       3.25010000       0.17870000
H       -0.81930000       1.88530000      -0.24980000
H        2.99070000       0.63580000       0.29840000
H        2.17950000       2.39600000      -1.90960000
H        4.75020000       2.86120000      -1.22340000
H        3.87310000       4.41270000      -1.29190000
H        2.80030000       2.92690000       2.16480000
H        1.00410000       4.13940000       0.15910000
