20
Properties=species:S:1:pos:R:3 gdb_82757=T pbc="F F F"
C       -0.06100000       1.52160000      -0.05390000
C        0.06130000       0.00290000       0.02020000
C        1.06650000      -0.61620000      -0.97330000
O        2.31180000       0.04570000      -0.59820000
C        2.24370000      -0.76650000       0.57330000
C        1.50040000      -1.90710000      -0.12630000
N        0.63690000      -2.09060000       1.03990000
C        0.79100000      -0.61570000       1.25540000
C        0.55570000      -0.07770000       2.64170000
H        0.92260000       1.99380000      -0.01180000
H       -0.54280000       1.82740000      -0.98910000
H       -0.66990000       1.90730000       0.77020000
H       -0.93030000      -0.45830000      -0.07260000
H        0.87020000      -0.60540000      -2.04480000
H        3.14490000      -0.82020000       1.18080000
H        1.94800000      -2.76380000      -0.62790000
H       -0.31980000      -2.37990000       0.83390000
H        1.14720000      -0.63340000       3.37480000
H        0.83260000       0.97950000       2.70230000
H       -0.49940000      -0.16320000       2.92830000
