14
Properties=species:S:1:pos:R:3 gdb_26917=T pbc="F F F"
O        0.07090000       1.33230000      -0.00120000
C       -0.02330000      -0.01290000      -0.00510000
C       -1.20930000      -0.65950000      -0.00120000
O       -2.42540000      -0.02640000       0.00620000
C       -1.16740000      -2.08620000      -0.00520000
C        0.01020000      -2.75470000      -0.01290000
C        1.27260000      -2.05540000      -0.01730000
N        2.41960000      -2.60020000      -0.02480000
O        1.16620000      -0.64340000      -0.01250000
H        1.00560000       1.57210000      -0.00810000
H       -2.27340000       0.92520000       0.00990000
H       -2.11420000      -2.61560000      -0.00190000
H        0.06590000      -3.83440000      -0.01610000
H        3.16260000      -1.90270000      -0.02650000
