19
Properties=species:S:1:pos:R:3 gdb_39178=T pbc="F F F"
C        0.53120000       1.60670000      -0.52330000
C        1.08340000       2.64660000       0.41940000
N        1.74980000       2.45920000       1.47920000
C        2.03570000       1.08640000       1.89090000
C        1.73320000       0.01710000       0.88400000
C        2.25520000      -1.20810000       0.75350000
C        1.49410000      -1.96500000      -0.31360000
C        0.71740000      -0.82530000      -1.01530000
N        0.68380000       0.25990000      -0.02100000
H       -0.52830000       1.83330000      -0.71290000
H        1.04140000       1.73860000      -1.49900000
H        0.87640000       3.68080000       0.12970000
H        3.08970000       1.03370000       2.18360000
H        1.46300000       0.91120000       2.81290000
H        2.99760000      -1.64630000       1.40520000
H        2.12880000      -2.51710000      -1.01410000
H        0.80420000      -2.69570000       0.13240000
H        1.26350000      -0.48470000      -1.91180000
H       -0.29200000      -1.10920000      -1.32710000
