18
Properties=species:S:1:pos:R:3 gdb_65628=T pbc="F F F"
N       -0.10760000       1.31200000       0.39290000
C        0.01810000      -0.10060000       0.05040000
C        0.35150000      -1.00850000       1.28050000
N       -0.95860000      -1.70940000       1.20110000
C       -2.05060000      -1.03200000       1.97980000
C       -2.55030000      -0.28370000       0.71410000
C       -1.33820000      -0.89400000      -0.01360000
C        0.87770000      -0.32930000      -1.11910000
N        1.55460000      -0.47350000      -2.04640000
H        0.79980000       1.67610000       0.67310000
H       -0.39050000       1.84820000      -0.42390000
H        1.19230000      -1.68790000       1.11940000
H        0.51280000      -0.44000000       2.20210000
H       -2.75170000      -1.75210000       2.41050000
H       -1.67840000      -0.38430000       2.78080000
H       -3.50550000      -0.64190000       0.32580000
H       -2.56680000       0.80420000       0.77910000
H       -1.50990000      -1.42880000      -0.95070000
