17
Properties=species:S:1:pos:R:3 gdb_86119=T pbc="F F F"
C        0.19630000       1.55850000      -0.08900000
C        0.15140000       0.04300000      -0.01880000
O        0.88730000      -0.48040000      -1.13840000
C        1.12520000      -1.82460000      -1.10770000
N        1.16730000      -2.32850000      -2.38570000
N        1.26950000      -2.55500000      -0.07820000
C        1.30210000      -1.90480000       1.21420000
C        0.68080000      -0.51750000       1.30310000
O        0.56770000       0.08950000       2.34050000
H        1.23170000       1.90890000      -0.06100000
H       -0.27090000       1.91250000      -1.01060000
H       -0.33120000       1.97450000       0.77070000
H       -0.88940000      -0.31050000      -0.10450000
H        1.30980000      -1.64930000      -3.11560000
H        1.68060000      -3.19020000      -2.48100000
H        0.80280000      -2.53320000       1.96290000
H        2.33970000      -1.81070000       1.57020000
