18
Properties=species:S:1:pos:R:3 gdb_35759=T pbc="F F F"
N       -0.03640000      -1.16120000      -0.35990000
C       -0.01000000      -0.02120000      -0.17240000
C       -0.00420000       1.42590000       0.05110000
C       -0.68680000       1.82090000       1.40160000
C        0.33380000       1.96840000       2.55570000
C        1.68820000       2.40090000       1.99670000
C        1.55890000       3.31480000       0.75630000
C        1.44980000       1.95460000       0.03900000
O        2.15930000       1.32440000       1.12880000
H       -0.56240000       1.88140000      -0.77640000
H       -1.19070000       2.77810000       1.24160000
H       -1.46740000       1.10070000       1.65460000
H       -0.03860000       2.69040000       3.29110000
H        0.48100000       1.01630000       3.07520000
H        2.41820000       2.65390000       2.76900000
H        0.72990000       4.02260000       0.69630000
H        2.49910000       3.81300000       0.51840000
H        1.93960000       1.80500000      -0.92590000
