19
Properties=species:S:1:pos:R:3 gdb_105033=T pbc="F F F"
C       -0.74630000       1.23610000      -0.25750000
C       -0.07800000      -0.12030000      -0.00190000
C        0.59420000      -0.70360000      -1.22950000
C        0.48220000      -2.13920000      -1.51990000
O       -0.28980000      -1.17870000      -2.25560000
C        1.79450000       0.08780000      -1.76120000
O        2.76150000       0.24470000      -0.75770000
C        2.41080000      -0.53490000      -3.00000000
O        3.59440000      -0.77460000      -3.05070000
H       -0.01410000       2.01050000      -0.50620000
H       -1.46540000       1.16660000      -1.07950000
H       -1.28320000       1.57090000       0.63450000
H        0.67640000      -0.03060000       0.78660000
H       -0.82910000      -0.83870000       0.34370000
H        1.25790000      -2.65300000      -2.08740000
H       -0.09070000      -2.77710000      -0.84930000
H        1.41590000       1.07440000      -2.08960000
H        3.59170000      -0.07060000      -1.15130000
H        1.72780000      -0.73440000      -3.84470000
