21
Properties=species:S:1:pos:R:3 gdb_104820=T pbc="F F F"
C        0.67350000      -0.78470000      -1.53550000
C        0.05410000      -0.13790000      -0.29200000
C       -1.44540000      -0.43640000      -0.10280000
C       -2.32130000       0.19280000      -1.20030000
O       -2.17220000       1.59720000      -1.23700000
C       -1.78400000      -1.91090000       0.31200000
C       -2.08500000      -1.45480000       1.77520000
C       -1.96190000      -0.01150000       1.28100000
O       -2.28330000       1.06140000       1.72160000
H        1.74800000      -0.58110000      -1.57400000
H        0.54350000      -1.87230000      -1.53660000
H        0.23360000      -0.39280000      -2.45700000
H        0.60040000      -0.47270000       0.59940000
H        0.17250000       0.94870000      -0.34380000
H       -2.03900000      -0.18390000      -2.18920000
H       -3.37230000      -0.09730000      -1.03390000
H       -2.36150000       1.92060000      -0.34520000
H       -2.66370000      -2.30910000      -0.19920000
H       -0.96480000      -2.62300000       0.20470000
H       -3.05040000      -1.72210000       2.21240000
H       -1.30020000      -1.71780000       2.49150000
