18
Properties=species:S:1:pos:R:3 gdb_110799=T pbc="F F F"
C        0.23680000       0.76790000      -0.52590000
O       -0.43760000      -0.07960000       0.39040000
C        0.39960000      -0.63580000       1.33210000
C        0.12270000      -1.98030000       1.88860000
O       -0.47850000      -2.83500000       0.89610000
C        0.67960000      -2.74130000       0.10820000
N        0.98280000      -3.32100000      -0.95460000
C        0.02790000      -4.23790000      -1.56120000
C        1.37080000      -1.78560000       1.02420000
H        1.00490000       0.21770000      -1.08470000
H       -0.51670000       1.14460000      -1.22010000
H        0.71000000       1.61890000      -0.01410000
H        0.82490000       0.06850000       2.05320000
H       -0.01540000      -2.25410000       2.92620000
H        0.51210000      -5.20870000      -1.71140000
H       -0.88670000      -4.38360000      -0.97540000
H       -0.24680000      -3.86100000      -2.55260000
H        2.42560000      -1.76290000       1.25670000
