15
Properties=species:S:1:pos:R:3 gdb_57035=T pbc="F F F"
O        0.00170000       1.48000000      -0.01680000
C        0.05350000       0.05700000      -0.04840000
C        0.72750000      -0.44740000      -1.24330000
C        1.32680000      -0.82380000      -2.21420000
C        0.71340000      -0.47930000       1.23400000
C       -0.02590000      -0.18750000       2.54920000
O       -0.22460000      -1.62380000       2.76670000
C        0.42650000      -1.94430000       1.60160000
O        0.61960000      -3.02350000       1.14690000
H        0.86040000       1.81080000      -0.30390000
H       -0.99580000      -0.26370000      -0.05950000
H        1.83770000      -1.17510000      -3.07700000
H        1.77950000      -0.24030000       1.23730000
H        0.56610000       0.24750000       3.35580000
H       -0.98220000       0.32920000       2.45040000
