20
Properties=species:S:1:pos:R:3 gdb_120520=T pbc="F F F"
C       -0.45140000       1.19190000      -0.30040000
C        0.18310000      -0.17530000      -0.11450000
O        0.43070000      -0.37110000       1.26930000
C        0.97590000      -1.61810000       1.57780000
C        2.50210000      -1.84630000       1.36080000
C        2.55460000      -2.52160000       2.77360000
C        1.17100000      -1.85730000       3.08730000
C        2.51470000      -3.97520000       2.73090000
N        2.47710000      -5.13060000       2.69080000
H        0.21610000       1.97800000       0.06370000
H       -0.65820000       1.37460000      -1.35900000
H       -1.39150000       1.25660000       0.25460000
H       -0.48340000      -0.96900000      -0.49020000
H        1.12330000      -0.24520000      -0.68460000
H        0.39230000      -2.42700000       1.11230000
H        2.83070000      -2.44420000       0.51030000
H        3.03790000      -0.89420000       1.37790000
H        3.38280000      -2.21270000       3.41440000
H        1.31600000      -0.90560000       3.60300000
H        0.42990000      -2.45610000       3.61680000
