19
Properties=species:S:1:pos:R:3 gdb_37922=T pbc="F F F"
C       -0.01450000       1.50410000      -0.03500000
C        1.52290000       1.51240000      -0.07750000
C        1.41030000       0.02780000      -0.52210000
C        1.91680000      -0.37670000       0.86800000
C        0.45030000      -0.55370000       1.31470000
C        0.27630000       0.32960000       2.55130000
C        1.45460000       1.35820000       2.44260000
N        2.17620000       1.05350000       1.19760000
N       -0.03870000       0.00090000      -0.02670000
H       -0.54230000       2.00570000       0.78130000
H       -0.44020000       1.85190000      -0.98340000
H        2.05900000       2.31830000      -0.58540000
H        1.65070000      -0.39710000      -1.49380000
H        2.70160000      -1.09180000       1.12550000
H        0.07030000      -1.57030000       1.44080000
H       -0.70840000       0.80730000       2.57920000
H        0.36150000      -0.27730000       3.45850000
H        1.11600000       2.39850000       2.43130000
H        2.13950000       1.24830000       3.29030000
