16
Properties=species:S:1:pos:R:3 gdb_71738=T pbc="F F F"
O       -0.24750000       1.27410000       0.20830000
C       -0.00000000      -0.08810000       0.09460000
C        1.09370000      -0.82710000       0.84910000
N        0.78580000      -2.21900000       0.50810000
C        0.21220000      -2.26930000      -0.86080000
C       -0.67910000      -2.37070000       0.32540000
C       -1.22840000      -0.95140000       0.03440000
O       -2.49980000      -0.51100000       0.29160000
C       -0.32110000      -0.85340000      -1.19420000
H        0.32310000       1.75390000      -0.40160000
H        2.10520000      -0.57690000       0.51160000
H        1.02830000      -0.67770000       1.93140000
H        0.56080000      -3.02100000      -1.55730000
H       -1.20270000      -3.20470000       0.77480000
H       -2.43620000       0.43660000       0.47330000
H       -0.45980000      -0.39590000      -2.16390000
