17
Properties=species:S:1:pos:R:3 gdb_64597=T pbc="F F F"
C        0.02410000       1.62850000       0.26760000
C       -0.00570000       0.08990000       0.10890000
C       -1.46400000      -0.34450000       0.19860000
O       -2.11550000      -0.80180000      -0.70200000
C        0.67420000      -0.39120000      -1.16080000
C        1.67990000      -1.23360000      -0.91730000
C        1.85250000      -1.42280000       0.55380000
O        2.18450000      -0.19430000       1.25570000
C        0.82170000      -0.60480000       1.20800000
H        1.06100000       1.95470000       0.37070000
H       -0.42160000       2.11870000      -0.60260000
H       -0.53000000       1.94520000       1.15800000
H       -1.91470000      -0.17010000       1.20570000
H        0.36210000      -0.03850000      -2.13630000
H        2.31380000      -1.70190000      -1.65960000
H        2.27900000      -2.32270000       0.98500000
H        0.36650000      -0.84740000       2.16600000
