19
Properties=species:S:1:pos:R:3 gdb_116143=T pbc="F F F"
N       -0.08440000       1.32380000       0.10830000
C       -0.14040000      -0.05110000       0.06500000
N       -1.24320000      -0.68280000       0.00150000
C       -1.23780000      -2.14280000      -0.03210000
C       -2.37750000      -2.56880000      -0.96810000
O       -3.58940000      -1.95750000      -0.59130000
C        0.12200000      -2.70930000      -0.44490000
C        1.20820000      -1.98010000       0.33290000
O        1.11720000      -0.56090000       0.13850000
H        0.78980000       1.72740000      -0.19020000
H       -0.91200000       1.77820000      -0.24360000
H       -1.49460000      -2.51140000       0.97300000
H       -2.09760000      -2.30960000      -2.00460000
H       -2.52370000      -3.65430000      -0.92250000
H       -3.34020000      -1.04450000      -0.38490000
H        0.18420000      -3.78440000      -0.24740000
H        0.28230000      -2.55780000      -1.51940000
H        1.12620000      -2.19000000       1.40730000
H        2.21380000      -2.25310000       0.00510000
