14
Properties=species:S:1:pos:R:3 gdb_25828=T pbc="F F F"
N       -0.02830000       1.27370000      -0.01760000
C        0.03070000      -0.08570000       0.01240000
O        1.05780000      -0.73730000       0.02190000
C       -1.31540000      -0.70700000       0.02950000
N       -2.47650000      -0.13150000       0.00770000
C       -3.39790000      -1.16070000       0.02840000
C       -2.71370000      -2.34590000       0.06530000
N       -3.06730000      -3.67050000       0.17060000
O       -1.39020000      -2.07350000       0.06630000
H        0.83200000       1.79330000      -0.02090000
H       -0.91610000       1.74710000      -0.01390000
H       -4.46160000      -0.98970000       0.01680000
H       -3.99860000      -3.87770000      -0.15870000
H       -2.37800000      -4.30910000      -0.20210000
