21
Properties=species:S:1:pos:R:3 gdb_40291=T pbc="F F F"
C       -0.31410000       1.42500000       0.05750000
C        1.11080000       0.94880000      -0.04240000
C       -0.01870000      -0.05480000       0.05630000
C       -0.14920000      -0.81740000       1.36030000
O       -1.46740000      -1.00890000       1.85790000
C       -2.53860000      -1.11930000       0.93650000
C       -2.28140000      -1.91880000      -0.34370000
O       -1.70020000      -1.15450000      -1.38310000
C       -0.32980000      -0.85330000      -1.19790000
H       -0.64130000       1.87180000       0.99010000
H       -0.77950000       1.84780000      -0.82650000
H        1.61870000       1.04590000      -0.99620000
H        1.76020000       1.07320000       0.81750000
H        0.34750000      -1.79520000       1.24420000
H        0.37870000      -0.28370000       2.15790000
H       -3.34270000      -1.60620000       1.50030000
H       -2.89810000      -0.12440000       0.63200000
H       -1.68010000      -2.81640000      -0.12250000
H       -3.24810000      -2.25310000      -0.73510000
H       -0.03710000      -0.28800000      -2.08810000
H        0.26070000      -1.78660000      -1.18260000
