16
Properties=species:S:1:pos:R:3 gdb_12748=T pbc="F F F"
C        0.04450000       1.53440000       0.06770000
C       -0.04010000       0.04120000      -0.01180000
C       -0.88340000      -0.80360000       0.85590000
N        0.58390000      -0.90100000       1.00730000
C        1.03040000      -1.78470000      -0.11830000
C        0.49870000      -0.78600000      -1.19600000
C       -0.45440000      -1.25230000      -2.19190000
N       -1.22470000      -1.63930000      -2.96280000
H        1.03880000       1.89340000      -0.21870000
H       -0.69030000       1.99830000      -0.60010000
H       -0.15890000       1.87470000       1.08670000
H       -1.36350000      -0.31670000       1.69890000
H       -1.43210000      -1.64950000       0.44660000
H        2.11660000      -1.87950000      -0.12950000
H        0.57440000      -2.77840000      -0.11390000
H        1.32320000      -0.27550000      -1.69950000
