20
Properties=species:S:1:pos:R:3 gdb_9689=T pbc="F F F"
C        0.08590000       1.22510000      -0.35270000
O       -0.08700000      -0.00230000       0.32720000
C       -1.35580000      -0.58610000       0.17460000
C       -2.46230000       0.10330000       0.94470000
C       -1.65390000      -1.25500000      -1.14650000
C       -1.34860000      -2.08840000       0.08530000
C       -0.06410000      -2.86960000       0.15630000
O       -0.23410000      -4.06390000      -0.60190000
H        1.13380000       1.50950000      -0.22930000
H       -0.13610000       1.13020000      -1.42500000
H       -0.54330000       2.02480000       0.06230000
H       -2.64490000       1.11730000       0.57280000
H       -3.39890000      -0.45350000       0.85370000
H       -2.20270000       0.17090000       2.00640000
H       -2.66780000      -1.23660000      -1.53130000
H       -0.88080000      -1.21910000      -1.90700000
H       -2.19420000      -2.59090000       0.54710000
H        0.76010000      -2.25690000      -0.23120000
H        0.16780000      -3.10280000       1.20790000
H        0.57370000      -4.57970000      -0.52080000
