17
Properties=species:S:1:pos:R:3 gdb_80691=T pbc="F F F"
O        0.00150000       1.41630000       0.06970000
C       -0.06530000       0.03130000       0.00060000
C       -1.34600000      -0.74030000       0.01460000
C       -2.61920000       0.03750000      -0.32270000
C       -2.39200000       0.51010000      -1.74660000
C       -3.33370000       1.35200000      -2.48190000
O       -4.36630000       1.78580000      -2.01750000
C       -1.23610000       0.02960000      -2.25170000
C       -0.46540000      -0.74310000      -1.26080000
H       -0.58440000       1.79000000      -0.59980000
H        0.76730000      -0.39980000       0.54670000
H       -1.41670000      -1.62190000       0.64110000
H       -3.51750000      -0.58530000      -0.25790000
H       -2.77650000       0.88000000       0.36120000
H       -3.03800000       1.56890000      -3.53320000
H       -0.88900000       0.20970000      -3.26440000
H        0.14920000      -1.57920000      -1.57390000
