15
Properties=species:S:1:pos:R:3 gdb_130215=T pbc="F F F"
N        0.47920000       0.93850000      -0.95620000
C        0.20080000      -0.22050000      -0.26230000
N       -0.95840000      -0.87150000      -0.37590000
N       -0.83690000      -1.85920000       0.51880000
N        0.29000000      -1.90610000       1.20160000
C        0.98990000      -0.87640000       0.71860000
C        2.35930000      -0.56990000       1.18020000
C        3.53220000      -0.71370000       0.29680000
O        2.98090000       0.57610000       0.57690000
H        1.45730000       1.18690000      -0.95790000
H        0.01700000       1.02100000      -1.84880000
H       -1.57820000      -2.52120000       0.67210000
H        2.52880000      -0.66220000       2.25220000
H        4.51300000      -0.90120000       0.73030000
H        3.38840000      -1.07300000      -0.72030000
