11
Properties=species:S:1:pos:R:3 gdb_130813=T pbc="F F F"
O       -0.10290000      -0.00780000       0.00090000
C       -0.00210000       1.19660000       0.00780000
C        1.25580000       1.90290000      -0.00090000
C        2.29370000       2.52050000      -0.00790000
C        3.49730000       3.25440000      -0.01580000
N        4.71360000       2.69810000      -0.03160000
N        5.47720000       3.77120000      -0.03270000
N        4.82280000       4.93070000      -0.01730000
N        3.56010000       4.62200000      -0.00550000
H       -0.88950000       1.85960000       0.02170000
H        6.48630000       3.72230000      -0.04380000
