16
Properties=species:S:1:pos:R:3 gdb_26983=T pbc="F F F"
N       -0.03140000       1.31790000      -0.38210000
C       -0.07370000      -0.06790000      -0.15840000
C       -1.10940000      -0.97680000      -0.03290000
C       -2.59110000      -0.72530000      -0.14930000
C       -2.94230000       0.33590000      -1.09740000
N       -3.20040000       1.19590000      -1.82590000
C       -0.51920000      -2.24530000       0.26710000
C        0.83860000      -2.07870000       0.30590000
N        1.09800000      -0.74920000       0.04840000
H        0.46010000       1.55230000      -1.24000000
H       -0.96190000       1.71040000      -0.45590000
H       -3.09470000      -1.64300000      -0.47460000
H       -3.04600000      -0.46140000       0.81660000
H       -1.05040000      -3.17330000       0.41740000
H        1.63890000      -2.77770000       0.48240000
H        1.99940000      -0.30620000       0.09000000
