21
Properties=species:S:1:pos:R:3 gdb_59364=T pbc="F F F"
C        0.46810000       0.20550000      -0.90330000
C        0.02620000      -0.20430000       0.50010000
O       -0.19340000       0.94680000       1.31710000
C       -1.23610000      -1.06830000       0.56410000
O       -2.33650000      -0.49670000      -0.18920000
C       -2.61970000      -1.75880000      -0.84430000
C       -2.65510000      -1.65080000      -2.35390000
C       -1.37810000      -2.41830000      -0.17310000
O       -0.28130000      -2.73870000      -0.99940000
H        1.31120000       0.89680000      -0.82550000
H        0.76450000      -0.66440000      -1.49080000
H       -0.35170000       0.71140000      -1.42310000
H        0.83130000      -0.75850000       0.99730000
H       -0.92630000       1.43090000       0.91820000
H       -1.50740000      -1.15250000       1.62490000
H       -3.56620000      -2.17180000      -0.46710000
H       -1.68380000      -1.34760000      -2.75010000
H       -2.93180000      -2.61250000      -2.80110000
H       -3.40580000      -0.91330000      -2.65390000
H       -1.62030000      -3.25790000       0.48910000
H       -0.44670000      -3.59460000      -1.40640000
