19
Properties=species:S:1:pos:R:3 gdb_93776=T pbc="F F F"
C       -0.06310000       1.55510000       0.05660000
C        0.11030000       0.03810000       0.00510000
N        0.85510000      -0.33120000      -1.20150000
C        1.46090000      -1.45380000      -1.21070000
N        2.08050000      -1.93550000      -2.34180000
O        1.59130000      -2.35710000      -0.20450000
C        0.97220000      -2.03520000       1.05260000
C        0.81800000      -0.52950000       1.24570000
O        2.07820000       0.08630000       1.47250000
H        0.90300000       2.05350000       0.17160000
H       -0.52140000       1.90520000      -0.87160000
H       -0.70000000       1.84740000       0.89800000
H       -0.89270000      -0.41480000      -0.03890000
H        2.24330000      -1.23080000      -3.04360000
H        2.84470000      -2.57310000      -2.18030000
H       -0.00430000      -2.53340000       1.09780000
H        1.62350000      -2.45680000       1.82150000
H        0.22290000      -0.35690000       2.14950000
H        2.48080000       0.23210000       0.60780000
