16
Properties=species:S:1:pos:R:3 gdb_10158=T pbc="F F F"
O       -0.04660000       1.41430000       0.03260000
C        0.04290000       0.00140000      -0.04200000
C       -1.38030000      -0.54010000       0.04380000
C       -1.44300000      -2.08890000      -0.03030000
C       -0.81630000      -2.68630000       1.23520000
O        0.26910000      -3.19910000       1.27350000
C       -2.81560000      -2.56470000      -0.15170000
C       -3.94790000      -2.96490000      -0.20250000
H        0.84480000       1.77430000       0.01150000
H        0.50480000      -0.32410000      -0.98840000
H        0.65830000      -0.40670000       0.77390000
H       -1.84530000      -0.19520000       0.97430000
H       -1.97310000      -0.12520000      -0.77640000
H       -0.84250000      -2.43880000      -0.87840000
H       -1.45350000      -2.58320000       2.14130000
H       -4.94670000      -3.31990000      -0.26970000
