19
Properties=species:S:1:pos:R:3 gdb_56510=T pbc="F F F"
C       -0.08610000       1.58080000       0.07460000
C       -0.02140000       0.03870000       0.02020000
C        0.74150000      -0.50170000       1.25120000
C       -1.37670000      -0.51900000       0.01700000
C       -2.48210000      -0.98790000       0.06060000
C        0.69630000      -0.43870000      -1.29200000
N        0.01540000       0.04250000      -2.49200000
C        2.12980000      -0.06910000      -1.27370000
N        3.24170000       0.24760000      -1.31310000
H        0.92110000       2.00780000       0.03210000
H       -0.68250000       1.98100000      -0.74870000
H       -0.55520000       1.90010000       1.00840000
H        0.20970000      -0.22790000       2.16560000
H        0.81650000      -1.59260000       1.21950000
H        1.75050000      -0.08290000       1.29670000
H       -3.46280000      -1.39480000       0.08410000
H        0.64270000      -1.53230000      -1.29990000
H        0.22090000       1.02450000      -2.64630000
H        0.35680000      -0.45570000      -3.30750000
