15
Properties=species:S:1:pos:R:3 gdb_29945=T pbc="F F F"
C       -0.02970000       1.44450000       0.01360000
N       -0.04100000      -0.01400000       0.00250000
C       -1.18050000      -0.72330000      -0.15400000
C       -1.17580000      -2.08320000      -0.16230000
C        0.10090000      -2.68480000       0.00370000
O        0.14660000      -4.02420000       0.00090000
N        1.22100000      -2.03370000       0.15730000
C        1.22840000      -0.66080000       0.16730000
O        2.21480000       0.03260000       0.30330000
H        0.61100000       1.81940000      -0.78770000
H       -1.04860000       1.81150000      -0.12050000
H        0.37690000       1.80800000       0.95990000
H       -2.09080000      -0.14580000      -0.27140000
H       -2.07400000      -2.66830000      -0.28580000
H        1.07930000      -4.25840000       0.12360000
