23
Properties=species:S:1:pos:R:3 gdb_113433=T pbc="F F F"
C       -0.88270000       1.26890000       0.03740000
C        0.08130000       0.09340000       0.07550000
C        1.34150000       0.14090000      -0.84430000
C        2.17970000      -0.33290000       0.35230000
C        3.08590000      -1.53090000       0.37840000
C        3.64710000      -0.13980000       0.58780000
C        4.49390000       0.49940000      -0.47860000
O        4.30860000       1.91030000      -0.40510000
C        1.01940000      -0.05220000       1.31450000
H       -0.35340000       2.21490000       0.19970000
H       -1.39340000       1.33510000      -0.93010000
H       -1.65120000       1.17940000       0.81370000
H       -0.46550000      -0.84100000      -0.08940000
H        1.32570000      -0.49680000      -1.73300000
H        1.60120000       1.16120000      -1.14570000
H        3.04380000      -2.19760000       1.23420000
H        3.30060000      -2.02990000      -0.56290000
H        3.94090000       0.11880000       1.60250000
H        5.55330000       0.23420000      -0.33260000
H        4.19420000       0.11310000      -1.46620000
H        4.90750000       2.32250000      -1.03510000
H        1.14220000       0.89480000       1.85230000
H        0.76790000      -0.83360000       2.03780000
