19
Properties=species:S:1:pos:R:3 gdb_74146=T pbc="F F F"
C       -0.14040000       1.48960000       0.03210000
C       -0.01240000       0.00320000      -0.03640000
C        0.05010000      -0.75680000      -1.13890000
C        0.10720000      -2.19190000      -0.79440000
O        0.25290000      -3.12360000      -1.55180000
C       -0.07010000      -2.28450000       0.72550000
C        0.04490000      -0.84030000       1.24640000
C        1.34720000      -0.60030000       2.02220000
O       -1.08480000      -0.57180000       2.08250000
H        0.71020000       1.94240000       0.55620000
H       -0.20480000       1.93680000      -0.96200000
H       -1.04240000       1.76290000       0.59250000
H        0.05220000      -0.40580000      -2.16430000
H       -1.07420000      -2.66170000       0.94140000
H        0.64870000      -2.97910000       1.16620000
H        2.22070000      -0.85720000       1.41590000
H        1.44650000       0.44990000       2.32190000
H        1.35500000      -1.21590000       2.92640000
H       -0.90150000       0.22320000       2.59390000
