17
Properties=species:S:1:pos:R:3 gdb_33861=T pbc="F F F"
N        0.03810000      -1.12110000      -0.09740000
C        0.01640000       0.03500000      -0.04690000
C       -0.02230000       1.46750000       0.02080000
C        0.40100000       2.26630000      -1.19990000
C        1.25920000       2.30990000       0.02970000
C        1.05530000       3.37980000       1.07710000
C        0.00980000       4.42090000       0.89770000
N       -0.27220000       3.23140000       1.71110000
C       -0.98000000       2.12260000       1.03760000
H        0.77790000       1.69480000      -2.04070000
H       -0.19970000       3.12270000      -1.48040000
H        2.22570000       1.82280000      -0.00380000
H        1.89370000       3.56080000       1.74340000
H        0.06630000       5.34620000       1.46510000
H       -0.46740000       4.53040000      -0.07200000
H       -1.90450000       2.47770000       0.57050000
H       -1.25360000       1.38380000       1.79560000
