15
Properties=species:S:1:pos:R:3 gdb_2355=T pbc="F F F"
N       -0.09050000       1.34000000       0.06250000
C       -0.00100000      -0.04660000       0.11290000
O        1.05400000      -0.65070000       0.04480000
N       -1.21480000      -0.68250000       0.21650000
C       -2.52990000      -0.25530000      -0.29320000
C       -2.88970000      -1.75170000      -0.50430000
C       -1.42060000      -2.09570000      -0.12670000
H        0.79720000       1.79090000       0.22520000
H       -0.86780000       1.77530000       0.53620000
H       -3.14370000       0.28880000       0.43420000
H       -2.46680000       0.33660000      -1.21420000
H       -3.63030000      -2.13000000       0.20130000
H       -3.19110000      -2.02130000      -1.51650000
H       -0.78890000      -2.42500000      -0.95810000
H       -1.28240000      -2.78380000       0.71220000
