16
Properties=species:S:1:pos:R:3 gdb_53765=T pbc="F F F"
N        0.00560000       1.32130000      -0.19970000
C        0.04950000       0.02150000       0.21340000
O        1.06480000      -0.52610000       0.59720000
C       -1.23890000      -0.65700000       0.16060000
C       -2.27530000      -1.27250000       0.14340000
C       -3.50380000      -2.05240000       0.12350000
C       -3.26070000      -3.53100000      -0.26280000
C       -4.52680000      -4.35090000      -0.13910000
O       -4.98140000      -5.04940000      -1.00580000
H        0.86530000       1.84480000      -0.22090000
H       -0.83910000       1.73550000      -0.55220000
H       -3.97400000      -2.00520000       1.11520000
H       -4.21940000      -1.60230000      -0.57580000
H       -2.87330000      -3.61820000      -1.28010000
H       -2.51680000      -3.95460000       0.42470000
H       -5.03210000      -4.26460000       0.85270000
