18
Properties=species:S:1:pos:R:3 gdb_55432=T pbc="F F F"
N        1.15910000      -0.74690000       0.13020000
C        0.02300000       0.03220000      -0.00480000
O        0.07180000       1.24960000       0.03140000
N       -1.14410000      -0.68150000      -0.23510000
C       -1.19860000      -2.13840000      -0.39310000
C       -2.58850000      -2.38320000      -1.00260000
C       -3.42620000      -1.22800000      -0.44000000
C       -2.43770000      -0.08550000      -0.29740000
N       -2.75890000       1.13500000      -0.24160000
H        1.95220000      -0.21460000       0.45430000
H        1.08420000      -1.67540000       0.51360000
H       -0.38850000      -2.48600000      -1.03990000
H       -1.10140000      -2.64320000       0.58030000
H       -2.52700000      -2.30930000      -2.09270000
H       -2.97680000      -3.37230000      -0.75300000
H       -4.26830000      -0.93190000      -1.06540000
H       -3.82200000      -1.47780000       0.55230000
H       -1.92460000       1.71390000      -0.13530000
