17
Properties=species:S:1:pos:R:3 gdb_72967=T pbc="F F F"
C        0.00410000       1.58310000      -0.05400000
C       -0.01100000       0.08800000       0.06820000
C       -1.26050000      -0.79920000       0.05650000
O       -0.68040000      -1.69850000       1.04490000
C        0.47200000      -0.88980000       1.10710000
C        1.18000000      -0.83790000      -0.25270000
N        1.03550000      -1.92040000      -1.18390000
C        2.46720000      -0.17770000      -0.19390000
N        3.51170000       0.32280000      -0.17410000
H        0.99640000       1.98930000       0.15780000
H       -0.27440000       1.89560000      -1.06710000
H       -0.70620000       2.03710000       0.64470000
H       -2.13730000      -0.29390000       0.47430000
H       -1.50620000      -1.31540000      -0.87400000
H        1.00170000      -0.79660000       2.04880000
H        1.31360000      -1.63520000      -2.11710000
H        1.60900000      -2.71370000      -0.91610000
