20
Properties=species:S:1:pos:R:3 gdb_53964=T pbc="F F F"
C        0.02930000       1.49950000      -0.11550000
C        0.02670000      -0.00690000       0.08180000
O        1.06010000      -0.60880000       0.26770000
C       -1.32890000      -0.74620000       0.04080000
C       -2.08580000      -0.43850000       1.35300000
C       -2.16610000      -0.29910000      -1.17270000
C       -1.01610000      -2.26490000      -0.04490000
C       -2.21790000      -3.09380000      -0.03990000
N       -3.18000000      -3.73490000      -0.03600000
H        0.99110000       1.89680000       0.21050000
H       -0.10060000       1.72740000      -1.17950000
H       -0.78430000       1.99480000       0.42050000
H       -2.33130000       0.62360000       1.43370000
H       -3.02380000      -1.00070000       1.38290000
H       -1.49230000      -0.72010000       2.22860000
H       -1.63030000      -0.46580000      -2.11340000
H       -3.09990000      -0.86720000      -1.21370000
H       -2.42490000       0.76090000      -1.11140000
H       -0.44530000      -2.47700000      -0.95470000
H       -0.37220000      -2.55580000       0.78920000
