17
Properties=species:S:1:pos:R:3 gdb_88255=T pbc="F F F"
O       -0.12130000       1.36130000      -0.28570000
C       -0.03640000      -0.00760000      -0.06460000
C       -0.25790000      -0.55710000       1.31040000
C       -1.30590000      -0.80490000       0.22130000
C       -2.54320000      -0.08600000       0.23890000
C       -3.55780000       0.56850000       0.22630000
C       -4.81120000       1.30750000       0.17800000
C       -5.31470000       1.51690000      -1.25320000
O       -6.47300000       1.47240000      -1.56330000
H       -1.04850000       1.57920000      -0.44760000
H        0.70490000      -0.49150000      -0.69580000
H        0.32220000      -1.41170000       1.64060000
H       -0.51920000       0.15720000       2.08210000
H       -1.35310000      -1.80910000      -0.18850000
H       -5.60510000       0.81790000       0.75160000
H       -4.67670000       2.30940000       0.61430000
H       -4.51200000       1.73000000      -1.99270000
