20
Properties=species:S:1:pos:R:3 gdb_15710=T pbc="F F F"
C        0.23690000       1.56740000      -0.31510000
C        0.01030000       0.10200000       0.05570000
O        0.34520000      -0.70920000      -1.07960000
C        1.37620000      -1.63650000      -0.75010000
C        2.05880000      -1.07810000       0.49700000
C        0.86440000      -0.44690000       1.22780000
C        1.22590000       0.54920000       2.31840000
O        1.91630000      -0.16820000       3.33350000
H        1.29590000       1.77700000      -0.49540000
H       -0.30910000       1.79240000      -1.23540000
H       -0.12620000       2.24060000       0.46890000
H       -1.05760000      -0.04120000       0.27190000
H        0.94490000      -2.62970000      -0.54660000
H        2.04190000      -1.73040000      -1.61440000
H        2.56830000      -1.83730000       1.09240000
H        2.79230000      -0.30970000       0.22490000
H        0.29830000      -1.25370000       1.70980000
H        1.85510000       1.35320000       1.90740000
H        0.31190000       1.01770000       2.71870000
H        2.17540000       0.45500000       4.01840000
