15
Properties=species:S:1:pos:R:3 gdb_44530=T pbc="F F F"
O        0.06550000      -0.03860000      -0.06830000
C        0.01080000       1.16110000       0.05190000
N       -1.19480000       1.90170000       0.17840000
C       -0.90100000       3.29820000       0.00020000
C       -0.91780000       4.49120000       1.00550000
C        0.00300000       4.36360000       2.15070000
N        0.61120000       4.65870000       0.81640000
C        0.56950000       3.35210000       0.18890000
C        1.13970000       2.14700000       0.19930000
H       -2.02320000       1.47470000      -0.21120000
H       -1.23890000       3.68750000      -0.96820000
H       -1.57560000       5.34660000       0.89430000
H        0.05590000       5.20750000       2.83180000
H        0.20180000       3.39420000       2.59680000
H        2.14570000       1.83960000       0.44140000
