25
Properties=species:S:1:pos:R:3 gdb_118547=T pbc="F F F"
C       -0.76440000       1.46980000      -0.94210000
C       -0.47840000       0.05480000      -0.42980000
C       -1.75620000      -0.77050000      -0.23480000
C       -1.53070000      -2.24620000       0.14860000
C       -0.74820000      -2.44380000       1.46780000
C       -1.43570000      -1.92980000       2.73860000
C       -2.88470000      -2.99570000       0.15970000
C       -2.72090000      -4.47920000       0.38320000
O       -3.21540000      -5.10600000       1.28560000
H        0.15940000       2.04270000      -1.06890000
H       -1.27720000       1.44520000      -1.91010000
H       -1.40460000       2.02130000      -0.24450000
H        0.18440000      -0.46360000      -1.13570000
H        0.07450000       0.12020000       0.51460000
H       -2.39060000      -0.28530000       0.51870000
H       -2.33460000      -0.74500000      -1.16850000
H       -0.91920000      -2.69690000      -0.64780000
H       -0.54060000      -3.51430000       1.59130000
H        0.23230000      -1.96560000       1.36640000
H       -0.78740000      -2.08030000       3.60720000
H       -1.66140000      -0.86000000       2.68160000
H       -2.37110000      -2.46160000       2.93650000
H       -3.56310000      -2.59900000       0.92020000
H       -3.36380000      -2.86310000      -0.82100000
H       -2.07510000      -4.98580000      -0.37430000
