17
Properties=species:S:1:pos:R:3 gdb_75657=T pbc="F F F"
O       -0.02280000       1.34920000      -0.16390000
C       -0.01550000      -0.05880000      -0.05740000
C        0.43500000      -0.54930000       1.34170000
O        1.43530000      -0.21470000       1.92040000
C       -0.75010000      -1.37640000       1.79040000
C       -1.88460000      -0.34140000       1.44970000
C       -1.43800000      -0.63980000      -0.01830000
O       -2.25190000      -0.42060000      -1.11850000
C       -1.15230000      -2.08540000       0.45210000
H        0.78560000       1.67290000       0.25240000
H        0.58140000      -0.51760000      -0.86090000
H       -0.68960000      -1.89100000       2.74550000
H       -2.87370000      -0.75030000       1.66350000
H       -1.78930000       0.67890000       1.82580000
H       -2.14340000       0.50160000      -1.38100000
H       -0.39600000      -2.66880000      -0.08040000
H       -2.07140000      -2.66270000       0.56640000
