19
Properties=species:S:1:pos:R:3 gdb_91000=T pbc="F F F"
O       -0.05320000       1.44050000      -0.02480000
C        0.01870000       0.02630000       0.02420000
C        0.69330000      -0.55400000       1.30970000
C       -0.21720000      -1.72860000       1.67070000
C       -1.65370000      -1.41050000       2.20510000
C       -2.07050000      -0.15950000       1.40810000
C       -1.38960000      -0.57720000       0.07090000
C       -1.11780000      -2.07100000       0.45810000
O       -2.18110000      -2.47230000       1.34980000
H        0.84480000       1.78550000      -0.04550000
H        0.54720000      -0.35240000      -0.86590000
H        1.72250000      -0.87590000       1.12310000
H        0.72510000       0.21050000       2.09340000
H        0.23360000      -2.58690000       2.16730000
H       -1.93860000      -1.50260000       3.25350000
H       -3.15810000      -0.10790000       1.33380000
H       -1.69080000       0.78730000       1.79570000
H       -1.97740000      -0.40450000      -0.82980000
H       -0.87990000      -2.79440000      -0.32170000
