18
Properties=species:S:1:pos:R:3 gdb_24607=T pbc="F F F"
C        0.03830000       1.38600000      -0.24760000
C        1.50460000       1.51250000       0.19930000
C        1.31590000       0.05840000       0.72210000
O        0.00960000      -0.01620000       0.09120000
C        2.24050000      -1.01260000       0.26100000
C        2.08510000      -1.76800000      -0.88050000
N        3.14920000      -2.62900000      -0.96290000
C        3.98690000      -2.43960000       0.10670000
C        3.44860000      -1.44440000       0.88700000
H       -0.67620000       1.96410000       0.35390000
H       -0.17690000       1.55520000      -1.30890000
H        2.21990000       1.57980000      -0.62150000
H        1.72970000       2.27440000       0.94730000
H        1.21600000       0.02810000       1.81750000
H        1.29150000      -1.77130000      -1.60820000
H        3.27790000      -3.31780000      -1.68270000
H        4.88390000      -3.02630000       0.22270000
H        3.87000000      -1.06250000       1.80490000
