22
Properties=species:S:1:pos:R:3 gdb_6223=T pbc="F F F"
C        0.06620000       1.59980000      -0.01780000
C        0.02960000       0.07240000      -0.05180000
C        0.84010000      -0.56040000      -1.20200000
C        1.07210000      -1.99480000      -0.71720000
C        1.45630000      -1.81040000       0.76810000
C        1.28020000      -3.06740000       1.61830000
O        2.81580000      -1.35050000       0.85650000
C        0.59160000      -0.60760000       1.22930000
H        1.09420000       1.96070000       0.10200000
H       -0.33440000       2.02930000      -0.94270000
H       -0.52510000       1.99630000       0.81490000
H       -1.01570000      -0.24240000      -0.17360000
H        0.32820000      -0.49870000      -2.16690000
H        1.80540000      -0.05080000      -1.29900000
H        0.14420000      -2.57660000      -0.79190000
H        1.84380000      -2.53840000      -1.27390000
H        1.90450000      -3.88670000       1.24000000
H        1.57270000      -2.87100000       2.65420000
H        0.24090000      -3.41160000       1.60960000
H        3.38260000      -2.05380000       0.52080000
H        1.23300000       0.07250000       1.79680000
H       -0.21220000      -0.93000000       1.89710000
