17
Properties=species:S:1:pos:R:3 gdb_97296=T pbc="F F F"
C        0.23410000       1.41390000       0.01780000
N        0.04330000      -0.01830000       0.08420000
C        0.41710000      -0.70260000      -0.90880000
N        0.27180000      -2.08070000      -0.98690000
C        0.90520000      -2.99350000      -1.94320000
C        2.14440000      -3.58780000      -1.35490000
C        0.77170000      -4.12230000      -0.94010000
C        0.10680000      -3.11100000      -0.01490000
O       -0.38320000      -3.12210000       1.07120000
H        0.86180000       1.73980000       0.85520000
H        0.69830000       1.76050000      -0.92100000
H       -0.73230000       1.91860000       0.13260000
H        0.86920000      -0.28360000      -1.82190000
H        0.62760000      -2.98750000      -2.98850000
H        2.71260000      -4.26050000      -1.99130000
H        2.73780000      -3.00970000      -0.65330000
H        0.47140000      -5.14790000      -1.09440000
