21
Properties=species:S:1:pos:R:3 gdb_63184=T pbc="F F F"
C       -0.34300000       1.55080000      -0.11530000
C       -0.09130000       0.06010000      -0.03250000
C       -1.25950000      -0.81250000      -0.45100000
C        1.29620000      -0.48060000      -0.34480000
O        2.33460000       0.41330000      -0.62610000
C        3.26110000       0.45160000       0.45370000
C        2.58640000       1.02350000       1.68940000
O        1.38150000       0.34170000       2.03570000
C        0.79050000      -0.48880000       1.07690000
H        0.57570000       2.12750000      -0.00520000
H       -0.77760000       1.80850000      -1.08780000
H       -1.04600000       1.86990000       0.66170000
H       -1.53160000      -0.62860000      -1.49700000
H       -1.02570000      -1.87790000      -0.35220000
H       -2.14140000      -0.60860000       0.16720000
H        1.37710000      -1.42200000      -0.88940000
H        3.65850000      -0.55500000       0.65160000
H        4.08800000       1.09750000       0.14550000
H        3.25570000       0.96050000       2.55580000
H        2.35880000       2.08440000       1.51330000
H        0.50240000      -1.43940000       1.51970000
