23
Properties=species:S:1:pos:R:3 gdb_101756=T pbc="F F F"
C       -0.02470000       1.60570000       0.12970000
C       -0.03310000       0.08020000       0.01140000
C       -1.44060000      -0.51910000      -0.01510000
C       -1.41730000      -2.03470000      -0.23280000
O       -2.05160000      -0.17410000       1.22660000
C       -3.46600000      -0.24410000       1.22930000
C       -3.98610000       0.28170000       2.48490000
C       -4.43650000       0.70930000       3.51540000
C       -4.97210000       1.22950000       4.76450000
H        0.99800000       1.99140000       0.18150000
H       -0.51250000       2.07240000      -0.73380000
H       -0.55880000       1.92150000       1.02890000
H        0.49120000      -0.23350000      -0.89930000
H        0.50840000      -0.36450000       0.85570000
H       -2.01210000      -0.04670000      -0.83430000
H       -2.42500000      -2.45990000      -0.25270000
H       -0.93900000      -2.27650000      -1.18730000
H       -0.85620000      -2.52330000       0.57010000
H       -3.87560000       0.33460000       0.38300000
H       -3.81410000      -1.28120000       1.09580000
H       -5.66750000       2.05740000       4.58760000
H       -5.50980000       0.45580000       5.32350000
H       -4.16880000       1.60470000       5.40810000
