20
Properties=species:S:1:pos:R:3 gdb_81459=T pbc="F F F"
C       -0.01860000       1.58100000       0.02320000
C        0.01740000       0.06260000      -0.07040000
C        1.14730000      -0.59040000      -0.90390000
C        1.96790000      -0.51650000       0.39850000
N        0.64880000      -0.57250000       1.15870000
C        0.35750000      -2.00870000       1.21290000
C       -0.85390000      -2.64700000       0.58220000
C        0.49580000      -2.74040000      -0.10240000
O        0.79190000      -1.93760000      -1.22360000
H        0.96720000       2.01920000       0.20010000
H       -0.41470000       2.00590000      -0.90530000
H       -0.67090000       1.88610000       0.84670000
H       -0.98570000      -0.29790000      -0.30120000
H        1.50630000      -0.14300000      -1.83380000
H        2.65860000      -1.33350000       0.61670000
H        2.46680000       0.44150000       0.55150000
H        0.75120000      -2.46670000       2.11610000
H       -1.21800000      -3.55010000       1.06140000
H       -1.63410000      -2.04790000       0.13080000
H        0.97920000      -3.70990000      -0.17010000
