19
Properties=species:S:1:pos:R:3 gdb_95719=T pbc="F F F"
O       -0.44340000       1.43100000      -0.71050000
C       -0.04590000       0.21190000      -0.09530000
C       -1.33170000      -0.56950000       0.21670000
C       -1.12780000      -1.82740000       1.08930000
C       -0.70460000      -3.10150000       0.31760000
C        0.19840000      -2.76660000      -0.84620000
O        0.09120000      -3.18210000      -1.96400000
O        1.16920000      -1.85300000      -0.48840000
C        0.92730000      -0.54240000      -1.01370000
H        0.33450000       1.98840000      -0.81490000
H        0.46530000       0.40900000       0.86130000
H       -1.99110000       0.13050000       0.73950000
H       -1.84060000      -0.82270000      -0.72290000
H       -0.38460000      -1.60540000       1.86200000
H       -2.06080000      -2.05170000       1.61580000
H       -0.17750000      -3.78650000       0.99210000
H       -1.56620000      -3.63970000      -0.08500000
H        0.51920000      -0.60530000      -2.02880000
H        1.89710000      -0.03720000      -1.05900000
