22
Properties=species:S:1:pos:R:3 gdb_105103=T pbc="F F F"
C        0.16870000       1.52160000      -0.26040000
C        0.10950000       0.01480000       0.00630000
C        0.76730000      -0.48260000       1.28700000
C        1.75850000       0.34930000       2.02170000
N        0.42130000       0.10880000       2.59560000
C        0.93250000      -1.98480000       1.39060000
C       -0.26780000      -2.92850000       1.13380000
C        0.65930000      -3.58230000       0.09190000
O        1.65490000      -2.55130000       0.26690000
H        1.19210000       1.86200000      -0.44210000
H       -0.42320000       1.76940000      -1.14620000
H       -0.23920000       2.10920000       0.57070000
H       -0.94320000      -0.29870000       0.01520000
H        0.58050000      -0.51930000      -0.82590000
H        2.57720000      -0.12930000       2.55250000
H        1.98860000       1.33990000       1.64300000
H       -0.16090000       0.93200000       2.45880000
H        1.44230000      -2.20810000       2.33680000
H       -0.57490000      -3.54730000       1.97730000
H       -1.14600000      -2.44090000       0.70850000
H        1.04510000      -4.57030000       0.37560000
H        0.29470000      -3.62800000      -0.94060000
