19
Properties=species:S:1:pos:R:3 gdb_36415=T pbc="F F F"
C       -0.31900000      -0.97070000      -0.52180000
C       -0.14120000       0.21130000      -0.38920000
C        0.10690000       1.63780000      -0.21750000
C        1.54730000       1.95050000       0.25790000
C        2.62050000       1.54470000      -0.79320000
C        2.94270000       2.82410000      -1.53630000
O        1.78120000       3.54240000      -1.98560000
C        2.43090000       3.97140000      -0.77830000
C        1.75480000       3.47650000       0.48390000
H       -0.49280000      -2.01100000      -0.64330000
H       -0.07640000       2.16660000      -1.15880000
H       -0.60450000       2.04070000       0.51510000
H        1.70970000       1.40390000       1.19030000
H        3.53340000       1.18320000      -0.30500000
H        2.26640000       0.74450000      -1.44950000
H        3.80660000       2.88710000      -2.19350000
H        2.88070000       4.96030000      -0.82050000
H        0.81400000       3.99850000       0.68870000
H        2.41970000       3.66110000       1.33610000
