20
Properties=species:S:1:pos:R:3 gdb_61222=T pbc="F F F"
C        0.02110000       1.51830000      -0.36940000
C        0.00760000       0.03300000      -0.05860000
C        1.23000000      -0.74560000      -0.38950000
N        0.87960000      -0.47190000       1.01690000
C       -1.37000000      -0.65900000      -0.09260000
N       -1.35100000      -2.10210000       0.09910000
C       -2.28270000      -0.05240000       1.00410000
C       -3.65540000      -0.54410000       0.92950000
N       -4.75420000      -0.89510000       0.86340000
H        1.04710000       1.89160000      -0.44330000
H       -0.47650000       1.72560000      -1.32340000
H       -0.48740000       2.10540000       0.40270000
H        1.16580000      -1.79040000      -0.67610000
H        2.06290000      -0.20670000      -0.83310000
H        1.46150000       0.27320000       1.39090000
H       -1.82780000      -0.45550000      -1.06810000
H       -1.02420000      -2.57880000      -0.73310000
H       -0.71320000      -2.32990000       0.85840000
H       -1.86150000      -0.30400000       1.98420000
H       -2.31230000       1.03930000       0.93700000
