16
Properties=species:S:1:pos:R:3 gdb_20038=T pbc="F F F"
O        0.06680000       1.11510000      -0.75150000
C        0.12870000      -0.07170000       0.02800000
C       -1.26030000      -0.58980000       0.30930000
O       -1.89190000      -1.33580000      -0.75200000
C       -1.63310000      -2.00680000       0.47540000
C       -0.69990000      -3.18030000       0.45380000
C       -0.57620000      -4.02530000      -0.74340000
O        0.46610000      -3.12470000      -0.35900000
H       -0.30350000       0.86960000      -1.60620000
H        0.72940000      -0.85030000      -0.45050000
H        0.61050000       0.21050000       0.97090000
H       -1.92240000       0.15240000       0.75980000
H       -2.52590000      -2.21070000       1.07360000
H       -0.54910000      -3.64060000       1.43190000
H       -0.34080000      -5.08270000      -0.63960000
H       -1.12190000      -3.73760000      -1.63890000
