17
Properties=species:S:1:pos:R:3 gdb_28763=T pbc="F F F"
C       -0.02580000       1.56010000      -0.04200000
C        0.07330000       0.07430000      -0.00440000
C        0.10100000      -0.87060000      -1.01270000
N        0.21350000      -2.17350000      -0.53610000
C        0.15020000      -2.00550000       0.75850000
C        0.71780000      -2.43580000       2.09340000
C        1.98040000      -1.60700000       2.31090000
C        0.63050000      -0.95860000       2.46750000
N        0.01440000      -0.69520000       1.14800000
H        0.81170000       2.04170000       0.47760000
H       -0.01740000       1.90880000      -1.07760000
H       -0.94920000       1.91950000       0.42740000
H        0.01310000      -0.67850000      -2.07330000
H        0.46490000      -3.29810000       2.69320000
H        2.52250000      -1.79830000       3.23400000
H        2.60450000      -1.34940000       1.46130000
H        0.25570000      -0.49120000       3.36770000
