19
Properties=species:S:1:pos:R:3 gdb_103803=T pbc="F F F"
C       -0.31100000       2.03970000       0.00010000
C       -0.16900000       0.53530000      -0.06600000
C       -1.33710000      -0.15660000      -0.75340000
O       -1.06560000      -1.54620000      -0.86720000
N        1.17240000       0.01990000      -0.31880000
C        0.55030000      -0.24550000       0.99680000
C        1.18350000       0.40120000       2.20000000
N        0.97480000      -0.29390000       3.36380000
O        1.78850000       1.45520000       2.17890000
H        0.54490000       2.47320000       0.51580000
H       -0.36550000       2.45560000      -1.01250000
H       -1.22630000       2.32320000       0.53240000
H       -2.25820000       0.02540000      -0.17810000
H       -1.47290000       0.29870000      -1.74730000
H       -1.74970000      -1.94860000      -1.40850000
H        1.09780000      -0.83470000      -0.86870000
H        0.17120000      -1.25210000       1.15420000
H        0.64280000      -1.24250000       3.36020000
H        1.44760000       0.03890000       4.18870000
