19
Properties=species:S:1:pos:R:3 gdb_99800=T pbc="F F F"
C       -0.06280000       1.45480000       0.11690000
N       -0.09910000       0.00840000      -0.10080000
C        0.68410000      -0.50330000      -1.23600000
C        0.06980000      -0.02570000      -2.57320000
C        2.10530000      -0.03780000      -1.17440000
N        3.18250000       0.37240000      -1.08120000
C        0.68320000      -1.97060000      -1.17570000
C        0.67600000      -3.17240000      -1.12730000
C        0.67150000      -4.62620000      -1.06700000
H        0.95210000       1.87750000       0.17510000
H       -0.60610000       1.97200000      -0.67900000
H       -0.58010000       1.66760000       1.05560000
H        0.20810000      -0.47420000       0.73630000
H        0.12580000       1.06130000      -2.66050000
H        0.60920000      -0.46850000      -3.41230000
H       -0.97510000      -0.34020000      -2.60290000
H        0.53470000      -5.06210000      -2.06230000
H        1.61480000      -5.00680000      -0.66140000
H       -0.13990000      -4.99110000      -0.42830000
