17
Properties=species:S:1:pos:R:3 gdb_31052=T pbc="F F F"
C       -0.15290000       1.43380000       0.17580000
N        0.33630000       0.09200000      -0.11070000
C        0.79040000      -0.67550000       0.95440000
C        0.68610000      -2.03500000       1.10130000
N        0.05760000      -2.98000000       0.28210000
N        1.39870000      -2.31030000       2.30110000
C        1.82830000      -1.12130000       2.76300000
O        2.52300000      -1.05030000       3.91350000
N        1.49920000      -0.10960000       2.00120000
H        0.62760000       1.99390000       0.69390000
H       -0.37500000       1.94000000      -0.76770000
H       -1.05700000       1.45450000       0.80620000
H       -0.28980000      -0.45070000      -0.69130000
H        0.68910000      -3.62460000      -0.18260000
H       -0.67440000      -3.51230000       0.74060000
H        1.53980000      -3.20540000       2.73580000
H        2.72930000      -0.11540000       4.03930000
