14
Properties=species:S:1:pos:R:3 gdb_19348=T pbc="F F F"
O       -0.17510000       0.04060000       0.08400000
C       -0.00670000       1.23580000      -0.00810000
C        1.29340000       1.89180000       0.01890000
N        1.48180000       3.32420000       0.37110000
C        1.76390000       2.92180000      -0.99330000
C        3.13720000       2.18470000      -1.06280000
N        3.72990000       2.16160000       0.29450000
C        2.67710000       1.18940000      -0.06870000
H       -0.86190000       1.94000000      -0.14750000
H        0.55820000       3.76080000       0.38810000
H        1.21500000       3.30880000      -1.84260000
H        3.72730000       2.06000000      -1.96020000
H        4.61890000       1.66750000       0.20970000
H        2.81310000       0.11850000      -0.02490000
