13
Properties=species:S:1:pos:R:3 gdb_2843=T pbc="F F F"
O        0.03180000       1.37590000      -0.36840000
C        0.02950000       0.13940000       0.32410000
C       -1.33370000      -0.50330000       0.26960000
O       -1.69920000      -1.05160000      -1.00160000
C       -1.53480000      -1.95960000       0.10140000
C       -0.44690000      -2.89970000       0.04130000
C        0.43150000      -3.71960000       0.00920000
H       -0.20180000       1.18360000      -1.28360000
H        0.77910000      -0.55760000      -0.07350000
H        0.29230000       0.36610000       1.36290000
H       -2.13450000       0.05800000       0.75350000
H       -2.47310000      -2.37580000       0.46750000
H        1.21420000      -4.43710000      -0.02390000
