13
Properties=species:S:1:pos:R:3 gdb_130083=T pbc="F F F"
N        0.02870000       1.33670000      -0.13240000
C       -0.00730000      -0.03490000      -0.02820000
N       -1.10610000      -0.74880000       0.01340000
N       -0.61470000      -2.04630000      -0.00650000
C       -1.01300000      -3.35540000       0.00650000
N        0.05540000      -4.12370000      -0.01320000
N        1.20150000      -3.33020000      -0.03340000
C        0.74010000      -2.10760000      -0.02960000
N        1.15410000      -0.78620000      -0.02070000
H        0.68680000       1.79120000       0.48730000
H       -0.89570000       1.74020000      -0.05450000
H       -2.03850000      -3.68130000       0.03120000
H        2.07260000      -0.45580000      -0.26010000
