20
Properties=species:S:1:pos:R:3 gdb_80705=T pbc="F F F"
C        0.07940000       1.63540000      -0.22660000
N        0.26900000       0.20050000      -0.09060000
C        1.49920000      -0.48390000      -0.41120000
C        2.75410000       0.30640000       0.01130000
C        2.20290000       0.30840000       1.47690000
C        2.04290000       1.59360000       2.24540000
O        1.05750000       1.89980000       2.86970000
C        0.94370000      -0.45880000       1.00270000
C        0.21480000      -1.47870000       1.82620000
H        0.98010000       2.24660000      -0.07090000
H       -0.29080000       1.84100000      -1.23610000
H       -0.67220000       1.96330000       0.49560000
H        1.48090000      -1.27510000      -1.15420000
H        3.67450000      -0.27090000      -0.08920000
H        2.90060000       1.27930000      -0.46800000
H        2.83850000      -0.33790000       2.09770000
H        2.93740000       2.26140000       2.22580000
H       -0.33120000      -0.98970000       2.64040000
H       -0.50470000      -2.02160000       1.20840000
H        0.91030000      -2.19780000       2.27320000
