18
Properties=species:S:1:pos:R:3 gdb_96982=T pbc="F F F"
C        0.12200000       1.39650000      -0.15690000
N        0.27270000      -0.04820000      -0.09580000
C        0.58260000      -0.60990000       0.98620000
O        0.82520000       0.00110000       2.18270000
C        0.78820000      -0.97860000       3.21330000
C       -0.50330000      -1.72060000       3.37820000
C        0.64540000      -2.35000000       2.61420000
C        0.66530000      -2.13210000       1.11670000
O       -0.38780000      -2.75090000       0.41640000
H        0.99370000       1.83500000      -0.65700000
H       -0.75280000       1.63770000      -0.76880000
H        0.01570000       1.86790000       0.82670000
H        1.43690000      -0.72310000       4.04040000
H       -0.72850000      -2.12700000       4.35760000
H       -1.36470000      -1.38030000       2.81330000
H        1.16060000      -3.20600000       3.02970000
H        1.63960000      -2.46480000       0.72190000
H       -0.56400000      -2.16830000      -0.33740000
