18
Properties=species:S:1:pos:R:3 gdb_26479=T pbc="F F F"
C       -0.22890000       1.38260000      -0.70710000
C       -0.04570000       0.02100000      -0.06930000
C        1.05240000      -0.85910000      -0.57570000
N        1.15510000      -0.23880000       0.75600000
C       -1.27410000      -0.59160000       0.49070000
C       -2.60520000      -0.55460000       0.15110000
N       -3.35090000      -1.33140000       1.00930000
C       -2.48420000      -1.83080000       1.86160000
N       -1.21530000      -1.41940000       1.58900000
H        0.71710000       1.75340000      -1.11470000
H       -0.94980000       1.33380000      -1.52950000
H       -0.60460000       2.10760000       0.02190000
H        0.92560000      -1.93770000      -0.56920000
H        1.67960000      -0.47840000      -1.37780000
H        1.78200000       0.56120000       0.72960000
H       -3.06940000      -0.01840000      -0.66260000
H       -2.71370000      -2.48710000       2.68780000
H       -0.36420000      -1.58610000       2.10340000
