18
Properties=species:S:1:pos:R:3 gdb_121573=T pbc="F F F"
C        0.05220000       1.41810000       0.07370000
C        0.04330000      -0.03400000       0.00720000
C        0.02830000      -1.23770000      -0.05220000
C       -0.04560000      -2.68750000      -0.15460000
O       -0.95060000      -3.26180000      -0.73780000
N        0.98750000      -3.32910000       0.46430000
C        1.14390000      -4.76910000       0.44780000
C        2.53090000      -5.15970000      -0.04120000
O        3.46890000      -4.55510000       0.84270000
H        0.94750000       1.82820000      -0.40620000
H       -0.82340000       1.84210000      -0.42890000
H        0.04460000       1.76400000       1.11300000
H        1.72150000      -2.78610000       0.89040000
H        0.99170000      -5.18120000       1.45420000
H        0.37110000      -5.17380000      -0.20850000
H        2.62410000      -6.25630000      -0.03770000
H        2.67130000      -4.80550000      -1.07290000
H        4.35180000      -4.67710000       0.48290000
