14
Properties=species:S:1:pos:R:3 gdb_29330=T pbc="F F F"
N        0.06480000       1.42270000       0.08910000
C        0.01410000       0.02140000       0.00710000
C       -1.04370000      -0.84010000       0.02420000
O       -0.63190000      -2.13080000       0.00590000
C        0.74240000      -2.10220000      -0.03360000
C        1.46010000      -3.30690000      -0.05410000
N        2.10900000      -4.27010000      -0.06650000
C        1.18950000      -0.80060000      -0.02830000
N        2.47830000      -0.30680000      -0.10470000
H        0.58690000       1.82740000      -0.68150000
H       -0.85430000       1.84600000       0.11590000
H       -2.10980000      -0.68540000       0.05980000
H        3.20240000      -0.98890000       0.07710000
H        2.61320000       0.53510000       0.44110000
