23
Properties=species:S:1:pos:R:3 gdb_58741=T pbc="F F F"
C        0.02070000       1.52310000      -0.00270000
C       -0.05530000      -0.00460000       0.02950000
O        0.66670000      -0.53840000       1.13940000
C       -1.47600000      -0.52170000       0.01960000
C       -2.58670000      -0.26830000      -1.04410000
C       -3.24440000      -1.19270000       0.02750000
C       -4.65260000      -1.72450000       0.03480000
C       -1.91850000      -2.01350000       0.01550000
C       -2.57650000      -0.28240000       1.10530000
H        1.06450000       1.84680000       0.02260000
H       -0.44870000       1.92510000      -0.90610000
H       -0.49380000       1.95610000       0.86360000
H        0.46390000      -0.40650000      -0.85030000
H        0.22640000      -0.23160000       1.94010000
H       -2.97800000       0.75120000      -1.11780000
H       -2.42370000      -0.70570000      -2.03420000
H       -4.84680000      -2.33690000      -0.85270000
H       -4.83360000      -2.34790000       0.91750000
H       -5.38350000      -0.90830000       0.04520000
H       -1.70340000      -2.58320000      -0.89410000
H       -1.68740000      -2.59290000       0.91340000
H       -2.40940000      -0.73790000       2.08710000
H       -2.97020000       0.73460000       1.19800000
