20
Properties=species:S:1:pos:R:3 gdb_10185=T pbc="F F F"
C        0.00450000       1.57360000       0.07200000
C        0.12230000       0.05350000       0.10090000
N        0.54800000      -0.45560000      -1.20400000
C        0.64000000      -1.90970000      -1.28620000
C        0.86760000      -2.38180000      -2.73860000
C       -0.33080000      -2.12840000      -3.65770000
C        1.75350000      -2.37760000      -0.43860000
N        2.61720000      -2.76830000       0.22210000
H        0.95680000       2.02820000      -0.21450000
H       -0.75700000       1.89910000      -0.64660000
H       -0.28400000       1.95640000       1.05510000
H        0.87530000      -0.24630000       0.83860000
H       -0.83470000      -0.39220000       0.43080000
H       -0.10270000      -0.13760000      -1.91430000
H       -0.26870000      -2.41360000      -0.90020000
H        1.76120000      -1.88050000      -3.12400000
H        1.08640000      -3.45390000      -2.71230000
H       -1.24340000      -2.58470000      -3.25860000
H       -0.52430000      -1.06160000      -3.81060000
H       -0.14780000      -2.56150000      -4.64520000
