19
Properties=species:S:1:pos:R:3 gdb_38622=T pbc="F F F"
C       -0.02060000       1.54620000      -0.06350000
C        1.46350000       2.02640000       0.07600000
C        1.92170000       0.89520000       0.97490000
O        2.89110000       0.80170000       2.00250000
C        1.49720000       0.93740000       2.37850000
C        0.61370000      -0.26580000       2.68160000
C        0.35470000      -0.85130000       1.29250000
C        0.03600000      -0.00270000       0.03260000
C        1.44210000      -0.40940000       0.35750000
H       -0.64020000       1.99510000       0.72030000
H       -0.45480000       1.83830000      -1.02350000
H        1.96710000       2.03230000      -0.89650000
H        1.55970000       3.01680000       0.52720000
H        1.28180000       1.88780000       2.86080000
H        1.10190000      -1.01120000       3.32080000
H       -0.29200000       0.06610000       3.20240000
H       -0.01920000      -1.87010000       1.23290000
H       -0.52520000      -0.55210000      -0.71570000
H        2.09200000      -1.04760000      -0.22890000
