19
Properties=species:S:1:pos:R:3 gdb_125993=T pbc="F F F"
C       -0.75060000       1.23330000      -0.07360000
C        0.19870000       0.04100000       0.00650000
C        1.24140000      -0.01190000      -1.14430000
N        2.35980000      -0.66470000      -0.49280000
N        3.48350000      -1.18290000      -1.00880000
C        4.17120000      -1.55670000       0.07550000
C        3.48870000      -1.26540000       1.28050000
C        2.31010000      -0.67980000       0.85970000
C        1.04600000      -0.02140000       1.31920000
H       -0.19910000       2.17880000      -0.02300000
H       -1.32160000       1.22750000      -1.00800000
H       -1.46770000       1.21930000       0.75330000
H       -0.38660000      -0.88410000      -0.04630000
H        0.90050000      -0.58460000      -2.01020000
H        1.52620000       0.99170000      -1.48690000
H        5.13430000      -2.03190000      -0.04480000
H        3.81080000      -1.46250000       2.28980000
H        1.24370000       0.98890000       1.70220000
H        0.52840000      -0.56760000       2.11280000
