18
Properties=species:S:1:pos:R:3 gdb_8193=T pbc="F F F"
C       -0.01850000       1.57410000       0.06170000
C        0.04300000       0.06610000       0.03430000
O       -1.12770000      -0.55830000      -0.43610000
C        1.29690000      -0.74440000      -0.29710000
C        2.51000000      -0.12320000       0.37180000
O        1.82220000      -0.06330000       1.65160000
C        0.69320000      -0.76500000       1.10520000
C        0.03520000      -1.79580000       1.95960000
H        0.82190000       1.99310000       0.61820000
H       -0.00840000       1.99180000      -0.95250000
H       -0.94500000       1.89220000       0.54990000
H       -1.18180000      -0.40840000      -1.38660000
H        1.29420000      -1.50200000      -1.07040000
H        3.37300000      -0.79660000       0.43350000
H        2.84200000       0.86430000       0.02920000
H       -0.32660000      -1.33740000       2.88720000
H       -0.81820000      -2.22560000       1.43190000
H        0.73540000      -2.59310000       2.22730000
