21
Properties=species:S:1:pos:R:3 gdb_91167=T pbc="F F F"
C       -0.10990000       1.58040000      -0.03780000
C        0.04150000       0.06740000       0.02380000
O        0.80580000      -0.41290000      -1.09810000
C        1.88450000      -1.22430000      -0.54100000
C        2.83090000      -0.28410000       0.18450000
C        2.17140000       0.13420000       1.27190000
C        0.80740000      -0.52830000       1.25280000
C        1.18640000      -1.92100000       0.64660000
C        0.06320000      -2.88990000       0.29170000
H        0.86040000       2.07960000       0.01340000
H       -0.58990000       1.86650000      -0.97830000
H       -0.73800000       1.93800000       0.78590000
H       -0.95760000      -0.38850000      -0.01790000
H        2.28710000      -1.83780000      -1.34630000
H        3.79340000       0.04750000      -0.18300000
H        2.48710000       0.88190000       1.98870000
H        0.23500000      -0.52130000       2.18100000
H        1.91700000      -2.41110000       1.29490000
H       -0.56570000      -2.51060000      -0.51650000
H        0.48070000      -3.84740000      -0.03720000
H       -0.57290000      -3.09220000       1.16060000
