22
Properties=species:S:1:pos:R:3 gdb_58089=T pbc="F F F"
C       -0.08300000       1.59930000      -0.07230000
C       -0.04560000       0.06150000      -0.04410000
C       -1.46450000      -0.50760000       0.08630000
C        0.72000000      -0.51090000      -1.26730000
C        0.75500000      -2.04400000      -1.28740000
O        0.11390000      -0.12270000      -2.50780000
C        2.19670000      -0.04050000      -1.19850000
N        2.69400000       0.41760000      -2.37810000
O        2.84390000      -0.10370000      -0.16900000
H        0.91670000       2.03090000      -0.17300000
H       -0.71340000       1.98420000      -0.88610000
H       -0.51730000       1.98280000       0.85560000
H        0.54690000      -0.23200000       0.82790000
H       -2.03390000      -0.35410000      -0.83670000
H       -1.46220000      -1.57790000       0.30640000
H       -1.99980000      -0.00680000       0.89910000
H       -0.25300000      -2.44930000      -1.39090000
H        1.34810000      -2.39250000      -2.13810000
H        1.21110000      -2.42130000      -0.36960000
H       -0.10510000       0.81380000      -2.44890000
H        2.13990000       0.31810000      -3.21210000
H        3.68010000       0.60990000      -2.44010000
