17
Properties=species:S:1:pos:R:3 gdb_54955=T pbc="F F F"
C       -0.30840000       1.54500000       0.10110000
C       -0.01330000       0.05510000       0.01950000
C        1.36410000      -0.43830000      -0.35970000
C        0.89280000      -0.65690000       1.05040000
C        1.52800000       0.14740000       2.14980000
N        1.36190000      -0.37420000       3.39720000
O        2.15260000       1.17430000       1.94650000
C       -1.12600000      -0.75000000      -0.42780000
N       -2.02480000      -1.38810000      -0.77990000
H        0.55820000       2.07670000       0.49370000
H       -0.54790000       1.93110000      -0.89390000
H       -1.16510000       1.73630000       0.75400000
H        1.44790000      -1.29890000      -1.01150000
H        2.11800000       0.33160000      -0.48080000
H        0.57520000      -1.65970000       1.31460000
H        0.77830000      -1.17230000       3.57560000
H        1.72800000       0.14310000       4.17970000
