19
Properties=species:S:1:pos:R:3 gdb_110214=T pbc="F F F"
C        0.21000000       1.60420000      -0.06510000
C        0.08190000       0.12360000       0.07330000
O        0.51640000      -0.67140000      -1.04100000
C        1.05540000      -1.69170000      -0.15380000
C        0.49510000      -0.96110000       1.05440000
O        1.07810000      -0.94510000       2.29930000
C       -0.97920000      -0.67180000       0.82720000
C       -1.66770000      -0.05850000       2.02510000
O       -1.61690000      -0.92590000       3.17380000
H        1.24320000       1.87510000      -0.30220000
H       -0.43200000       1.97130000      -0.87430000
H       -0.07610000       2.11900000       0.85540000
H        0.66990000      -2.69300000      -0.38100000
H        2.15090000      -1.69380000      -0.18500000
H        0.37440000      -1.13210000       2.94090000
H       -1.57830000      -1.37740000       0.24910000
H       -1.16230000       0.85310000       2.35220000
H       -2.70710000       0.20420000       1.79110000
H       -2.07060000      -1.74380000       2.94250000
