21
Properties=species:S:1:pos:R:3 gdb_113550=T pbc="F F F"
C        0.37650000       1.48440000       0.21420000
C       -0.27010000       0.15040000      -0.17930000
C        0.38080000      -0.45690000      -1.39640000
O        1.68370000      -1.05220000      -1.20280000
C        0.60680000      -1.89430000      -1.56200000
C        0.05190000      -3.07680000      -0.76110000
C       -0.45440000      -3.66110000      -2.11410000
C        0.50980000      -2.68650000      -2.86200000
O        0.03920000      -1.95580000      -3.96710000
H        1.43930000       1.34440000       0.43220000
H        0.29370000       2.21840000      -0.59470000
H       -0.10200000       1.90870000       1.10180000
H       -0.20410000      -0.55580000       0.65520000
H       -1.33710000       0.29840000      -0.39230000
H        0.31260000       0.13390000      -2.31110000
H        0.85280000      -3.67460000      -0.31690000
H       -0.69510000      -2.86330000       0.00570000
H       -0.32040000      -4.73100000      -2.28320000
H       -1.49270000      -3.38580000      -2.31370000
H        1.47140000      -3.17420000      -3.07800000
H        0.18600000      -2.47240000      -4.76490000
