20
Properties=species:S:1:pos:R:3 gdb_118894=T pbc="F F F"
O        0.10920000       1.45420000      -0.07900000
C        0.06410000       0.05120000       0.13600000
C       -1.32820000      -0.53580000      -0.10720000
C       -1.37980000      -2.05460000       0.00640000
O       -0.51420000      -2.68840000      -0.92610000
C       -1.12210000      -2.72450000       1.40510000
C       -2.51460000      -3.35450000       1.32180000
N       -3.47240000      -2.22300000       1.23220000
C       -2.78160000      -2.70960000       0.01230000
H       -0.49690000       1.86450000       0.54610000
H        0.77980000      -0.38370000      -0.56680000
H        0.41110000      -0.20860000       1.14880000
H       -2.04760000      -0.11640000       0.60550000
H       -1.66230000      -0.23510000      -1.11110000
H       -0.73630000      -2.35790000      -1.80430000
H       -0.30950000      -3.44700000       1.31950000
H       -0.95680000      -2.05960000       2.25590000
H       -2.83190000      -4.31760000       1.70110000
H       -4.41160000      -2.62040000       1.22010000
H       -3.33570000      -3.06230000      -0.85030000
