18
Properties=species:S:1:pos:R:3 gdb_52659=T pbc="F F F"
C       -0.09140000       1.48870000      -0.04710000
C       -0.04650000       0.03410000      -0.02820000
C        0.00070000      -1.16770000       0.00220000
C        0.02510000      -2.62800000      -0.00010000
N       -1.33600000      -3.15650000       0.05900000
C        0.87210000      -3.13290000      -1.22440000
N        2.25600000      -2.68560000      -1.11930000
C        0.73940000      -4.60240000      -1.33570000
N        0.67540000      -5.75610000      -1.39750000
H        0.81780000       1.90580000      -0.49360000
H       -0.94520000       1.85290000      -0.62860000
H       -0.18240000       1.89530000       0.96590000
H        0.54700000      -2.98170000       0.90110000
H       -1.87940000      -2.81580000      -0.72810000
H       -1.32410000      -4.17160000       0.01320000
H        0.43580000      -2.68920000      -2.12620000
H        2.71490000      -3.14750000      -0.33910000
H        2.77570000      -2.93680000      -1.95430000
