13
Properties=species:S:1:pos:R:3 gdb_132654=T pbc="F F F"
N       -0.02750000       1.38180000      -0.15770000
C        0.02090000       0.00340000      -0.06500000
N       -1.15570000      -0.63130000      -0.03870000
C       -1.15290000      -1.96650000      -0.01020000
C        0.00160000      -2.72560000       0.00380000
F       -0.03610000      -4.05950000       0.03990000
C        1.22550000      -2.05560000      -0.01590000
F        2.35390000      -2.75470000      -0.00040000
C        1.25220000      -0.67800000      -0.05370000
H        0.75620000       1.89270000       0.21710000
H       -0.92770000       1.76850000       0.08490000
H       -2.11620000      -2.46940000       0.00820000
H        2.20170000      -0.15710000      -0.08180000
