19
Properties=species:S:1:pos:R:3 gdb_70991=T pbc="F F F"
O       -0.04620000       1.48530000      -0.07910000
C        0.01830000       0.09960000      -0.02750000
C        0.25720000      -0.72720000       1.36350000
C       -0.37820000      -1.84740000       0.45110000
C       -1.54360000      -2.85850000       0.23100000
C       -2.03110000      -1.87030000      -0.91640000
C       -1.29300000      -0.75670000      -0.10270000
C        0.70830000      -1.93820000      -0.64130000
C        0.96710000      -0.67000000      -0.95390000
H        0.84860000       1.83830000      -0.02760000
H        1.29410000      -0.84910000       1.68970000
H       -0.38270000      -0.37850000       2.17890000
H       -1.27850000      -3.88000000      -0.05830000
H       -2.25640000      -2.88900000       1.05890000
H       -1.55590000      -2.11350000      -1.86840000
H       -3.10700000      -1.74910000      -1.05970000
H       -1.97880000      -0.40610000       0.67630000
H        1.13830000      -2.85710000      -1.01790000
H        1.66560000      -0.23250000      -1.65440000
