21
Properties=species:S:1:pos:R:3 gdb_123064=T pbc="F F F"
O        0.43120000       0.56730000      -0.68340000
C       -0.14620000      -0.60760000      -0.15070000
C       -1.62230000      -0.40970000       0.15470000
O       -2.24900000      -0.06500000      -1.06880000
C       -3.60770000       0.29450000      -0.93780000
C       -4.12800000       0.66530000      -2.31460000
C       -4.43390000      -0.48070000      -3.30200000
C       -5.88240000       0.04430000      -3.23380000
O       -5.51970000       1.04570000      -2.25570000
H       -0.16460000       0.85300000      -1.38590000
H       -0.03430000      -1.46050000      -0.83950000
H        0.39310000      -0.84760000       0.77150000
H       -2.06350000      -1.32720000       0.57710000
H       -1.75020000       0.40320000       0.88690000
H       -4.19870000      -0.54060000      -0.52740000
H       -3.72850000       1.15210000      -0.25590000
H       -3.50670000       1.46930000      -2.73190000
H       -3.94660000      -0.41430000      -4.27500000
H       -4.28010000      -1.48010000      -2.89090000
H       -6.26080000       0.49930000      -4.15740000
H       -6.63790000      -0.64920000      -2.84650000
