21
Properties=species:S:1:pos:R:3 gdb_114282=T pbc="F F F"
O       -0.15100000       1.50960000      -0.31820000
C       -0.01410000       0.15900000       0.10620000
C       -1.38720000      -0.48020000       0.05370000
C       -1.91200000      -0.70310000      -1.41840000
C       -1.46080000      -2.13510000      -1.24790000
C       -0.71300000      -3.11290000      -1.74710000
C       -0.14990000      -3.94980000      -0.59920000
C       -0.25930000      -2.99520000       0.63910000
C       -1.41740000      -2.05020000       0.25280000
H        0.72450000       1.90650000      -0.34070000
H        0.67940000      -0.39220000      -0.54850000
H        0.38400000       0.10240000       1.13240000
H       -2.06700000       0.08040000       0.70070000
H       -2.99880000      -0.58600000      -1.47730000
H       -1.44870000      -0.10680000      -2.20750000
H       -0.45660000      -3.28480000      -2.78630000
H       -0.72490000      -4.87380000      -0.44190000
H        0.88360000      -4.26190000      -0.78680000
H       -0.42810000      -3.53630000       1.57450000
H        0.67990000      -2.44300000       0.74900000
H       -2.35890000      -2.33320000       0.73940000
