11
Properties=species:S:1:pos:R:3 gdb_19340=T pbc="F F F"
N        0.03660000      -1.14830000      -0.12450000
C        0.06320000       0.00600000      -0.05190000
C        0.06200000       1.42100000       0.10470000
O        0.21600000       2.28100000      -1.02340000
C        1.14470000       2.41910000       0.04000000
C        0.45720000       3.23910000       1.20430000
O       -0.86780000       3.55880000       0.78390000
C       -0.62060000       2.25670000       1.27840000
H        2.20020000       2.29270000      -0.16400000
H        0.93440000       3.85090000       1.95780000
H       -1.20990000       1.86350000       2.09610000
