17
Properties=species:S:1:pos:R:3 gdb_111384=T pbc="F F F"
O        0.10720000       1.37870000       0.08960000
C        0.06590000      -0.00900000      -0.19380000
C       -1.34070000      -0.57520000      -0.01320000
C       -1.56010000      -2.08740000      -0.06050000
C       -0.96110000      -2.77930000       1.09640000
N       -2.26670000      -2.11860000       1.29370000
C       -1.98370000      -0.63630000       1.41610000
C       -1.14260000      -0.22670000       2.53490000
N       -0.43030000       0.11870000       3.37910000
H        0.18370000       1.48350000       1.04420000
H        0.36440000      -0.12960000      -1.24160000
H        0.79220000      -0.56410000       0.41430000
H       -2.02070000      -0.04350000      -0.68180000
H       -1.96630000      -2.62710000      -0.90890000
H       -1.04810000      -3.86060000       1.12380000
H       -0.08320000      -2.38610000       1.60150000
H       -2.93290000      -0.10120000       1.47360000
