21
Properties=species:S:1:pos:R:3 gdb_115538=T pbc="F F F"
C       -0.04120000       1.58350000      -0.23920000
C        0.05580000       0.08070000       0.04980000
C       -1.31430000      -0.56370000       0.11700000
O       -2.03690000      -0.50170000      -1.13460000
C       -2.51580000      -1.84670000      -0.97160000
C       -1.49200000      -2.12480000       0.16940000
C       -0.28400000      -2.94180000      -0.30790000
C       -2.03010000      -2.65070000       1.41140000
C       -2.47310000      -3.08020000       2.44390000
H        0.95270000       2.03560000      -0.30580000
H       -0.56090000       1.75840000      -1.18530000
H       -0.59510000       2.10400000       0.54960000
H        0.65660000      -0.40570000      -0.72530000
H        0.56350000      -0.08950000       1.00820000
H       -1.90540000      -0.09210000       0.91640000
H       -3.56190000      -1.87860000      -0.64320000
H       -2.39550000      -2.44360000      -1.88250000
H        0.08020000      -2.56710000      -1.26820000
H        0.53390000      -2.90290000       0.41680000
H       -0.57120000      -3.98960000      -0.43540000
H       -2.86720000      -3.45950000       3.35410000
