16
Properties=species:S:1:pos:R:3 gdb_45351=T pbc="F F F"
O        0.12650000       0.06700000      -0.77270000
C        0.04740000       1.11750000      -0.21880000
C       -1.04100000       1.88310000       0.54570000
N       -0.15500000       3.08240000       0.54730000
C        0.23960000       3.61190000       1.87030000
C        1.39100000       2.73140000       2.38840000
C        2.02440000       2.14890000       1.11980000
O        3.10960000       1.65030000       1.00790000
C        0.99390000       2.32380000      -0.01240000
H       -1.98860000       2.02280000       0.01560000
H       -1.25290000       1.45120000       1.53510000
H        0.57770000       4.64640000       1.74600000
H       -0.62780000       3.63110000       2.53450000
H        2.13820000       3.25610000       2.98650000
H        1.02790000       1.88800000       2.98960000
H        1.47000000       2.72150000      -0.91360000
