21
Properties=species:S:1:pos:R:3 gdb_87816=T pbc="F F F"
C       -0.07690000       1.57060000       0.14360000
C        0.03100000       0.07550000       0.03640000
C       -0.87490000      -0.86700000       0.79040000
C        0.60960000      -0.94620000       1.02720000
C        1.28480000      -1.71910000      -0.11220000
C        0.66990000      -0.71000000      -1.10520000
C        0.09750000      -0.98760000      -2.47750000
C        1.36050000      -0.17130000      -2.31270000
O        1.31920000       1.21170000      -2.52630000
H        0.87830000       2.05790000      -0.06720000
H       -0.80820000       1.97090000      -0.56740000
H       -0.40050000       1.85540000       1.15070000
H       -1.44880000      -0.40790000       1.59010000
H       -1.39340000      -1.67320000       0.27560000
H        1.04410000      -0.76610000       2.00340000
H        2.37680000      -1.65910000      -0.08680000
H        0.98990000      -2.76880000      -0.22580000
H        0.17070000      -1.99060000      -2.88680000
H       -0.79810000      -0.44120000      -2.75890000
H        2.30490000      -0.64350000      -2.59120000
H        1.20550000       1.36080000      -3.47080000
