18
Properties=species:S:1:pos:R:3 gdb_71500=T pbc="F F F"
C       -0.00180000       1.50030000      -0.00740000
C        0.02610000      -0.00240000      -0.02980000
C        0.58290000      -0.94690000      -1.12310000
C        0.03940000      -1.90160000      -0.03780000
C        0.61540000      -0.97380000       1.06430000
N       -0.29290000      -1.05680000       2.20090000
C       -1.55890000      -0.94640000       1.62830000
O       -2.62030000      -0.81650000       2.18750000
C       -1.21610000      -0.97790000       0.14360000
H        1.00890000       1.91170000      -0.10600000
H       -0.60710000       1.89770000      -0.82900000
H       -0.42900000       1.87040000       0.93140000
H        0.05330000      -0.94840000      -2.07900000
H        1.66740000      -0.93630000      -1.27590000
H        0.03630000      -2.99200000      -0.02770000
H        1.67680000      -0.97920000       1.31010000
H       -0.10080000      -0.62180000       3.09020000
H       -2.03230000      -0.97930000      -0.57620000
