22
Properties=species:S:1:pos:R:3 gdb_22500=T pbc="F F F"
C       -1.48960000       0.49510000      -0.42990000
C       -0.09050000       0.01570000       0.00150000
C        0.67580000      -0.59140000      -1.14920000
C        0.72310000      -2.09060000      -1.30780000
C        1.62050000      -2.78070000      -0.26610000
C        1.62070000      -4.29660000      -0.41560000
O        2.45980000      -4.83360000       0.59510000
N        1.29160000       0.08240000      -2.04510000
O        1.19640000       1.47040000      -1.82140000
H       -1.40580000       1.26580000      -1.19930000
H       -2.08640000      -0.32910000      -0.83400000
H       -2.03130000       0.91450000       0.42320000
H        0.47390000       0.86500000       0.39630000
H       -0.18530000      -0.72270000       0.80390000
H       -0.29890000      -2.48780000      -1.22600000
H        1.08240000      -2.31830000      -2.31600000
H        2.64820000      -2.41440000      -0.36550000
H        1.29540000      -2.53690000       0.75190000
H        0.59010000      -4.67880000      -0.32350000
H        1.97920000      -4.57100000      -1.42130000
H        2.48270000      -5.78920000       0.49130000
H        1.71460000       1.82470000      -2.55110000
