17
Properties=species:S:1:pos:R:3 gdb_94343=T pbc="F F F"
O        0.47310000       0.80190000      -0.64770000
C        0.19040000      -0.28970000       0.16730000
C       -0.04250000      -0.08740000       1.70270000
C       -1.26470000      -1.05340000       1.62140000
C       -1.23920000      -0.85040000       0.10650000
N       -2.21360000      -0.08160000      -0.65630000
C       -1.98620000      -1.50900000      -0.99970000
C       -1.36990000      -1.78290000      -2.27530000
N       -0.87150000      -2.03950000      -3.28620000
H       -0.38040000       1.16130000      -0.93040000
H        0.94080000      -1.06690000      -0.01590000
H        0.77300000      -0.36580000       2.37160000
H       -0.34770000       0.94110000       1.90930000
H       -1.01710000      -2.07900000       1.90760000
H       -2.17950000      -0.75490000       2.14010000
H       -3.09670000       0.01380000      -0.15960000
H       -2.75600000      -2.22400000      -0.72020000
