14
Properties=species:S:1:pos:R:3 gdb_16616=T pbc="F F F"
C        0.03880000       1.50440000       0.03380000
C       -0.02690000       0.01610000      -0.04180000
C       -0.10960000      -0.78660000      -1.11470000
C       -0.04860000      -2.23410000      -0.71960000
O        1.19450000      -2.58040000      -0.07400000
C        0.04570000      -2.28070000       0.74030000
C        0.02180000      -0.82610000       1.20190000
O        0.00610000      -0.42700000       2.34060000
H        0.99870000       1.82600000       0.45390000
H       -0.08190000       1.96540000      -0.94940000
H       -0.73530000       1.88930000       0.70580000
H       -0.15680000      -0.45930000      -2.14700000
H       -0.50450000      -3.01740000      -1.31590000
H       -0.32660000      -3.07740000       1.37570000
