20
Properties=species:S:1:pos:R:3 gdb_33233=T pbc="F F F"
C        0.05910000       1.50980000       0.13490000
C       -0.08510000      -0.00090000      -0.06160000
C        0.74230000      -0.52520000      -1.23420000
N        0.55620000      -1.95430000      -1.40930000
C        1.27510000      -2.59700000      -2.40670000
C        1.86290000      -2.07550000      -3.53800000
N        2.38880000      -3.17880000      -4.19930000
C        2.11110000      -4.27160000      -3.44940000
N        1.44140000      -3.96190000      -2.35970000
H        1.10170000       1.78960000       0.32200000
H       -0.27720000       2.05890000      -0.75150000
H       -0.53570000       1.85620000       0.98510000
H        0.22440000      -0.52090000       0.85550000
H       -1.13610000      -0.26440000      -0.22690000
H        0.41940000      -0.02270000      -2.15650000
H        1.80580000      -0.25810000      -1.09230000
H        0.57470000      -2.48410000      -0.54800000
H        1.95340000      -1.07820000      -3.92940000
H        2.89150000      -3.16120000      -5.06960000
H        2.41760000      -5.26610000      -3.73720000
