19
Properties=species:S:1:pos:R:3 gdb_44875=T pbc="F F F"
O        0.02350000       0.06000000       0.00410000
C        0.02190000       1.26100000       0.00810000
C       -1.19080000       2.22390000       0.02590000
C       -0.40270000       3.55040000       0.03800000
C        0.69190000       3.28230000      -1.03850000
C        1.20040000       2.22970000       0.00760000
C        0.69950000       3.24190000       1.06890000
C        1.52880000       4.21020000       1.84450000
C        0.67420000       3.17180000       2.55920000
H       -1.82100000       2.08670000      -0.85850000
H       -1.80420000       2.06100000       0.91690000
H       -0.96900000       4.48120000       0.06310000
H        0.37210000       2.91580000      -2.01810000
H        1.39250000       4.11160000      -1.14610000
H        2.20210000       1.80500000       0.00220000
H        2.60600000       4.07820000       1.86160000
H        1.20780000       5.24660000       1.88680000
H       -0.21460000       3.51730000       3.07810000
H        1.18270000       2.34760000       3.04900000
