12
Properties=species:S:1:pos:R:3 gdb_128867=T pbc="F F F"
N        0.02040000      -3.69510000      -0.01800000
C        0.01100000      -2.53250000      -0.01150000
C        0.00400000      -1.16990000      -0.00390000
C       -0.00500000       0.04060000       0.00290000
C        0.03010000       1.45130000       0.01030000
N       -1.10080000       2.17660000       0.02920000
N       -0.67280000       3.44080000       0.03060000
C        0.67980000       3.56370000       0.01350000
C        1.18100000       2.28450000      -0.00020000
H       -1.35720000       4.17950000       0.04360000
H        1.16320000       4.52730000       0.01250000
H        2.21290000       1.97770000      -0.01540000
