11
Properties=species:S:1:pos:R:3 gdb_130480=T pbc="F F F"
O       -0.04010000       1.93650000       0.01330000
C        1.11970000       2.29130000       0.00380000
C        2.23130000       1.34140000      -0.01230000
N        3.52110000       1.65280000      -0.02330000
C        4.16500000       0.44380000      -0.03580000
N        3.39870000      -0.64100000      -0.03430000
C        2.15080000      -0.08660000      -0.01920000
N        1.04730000      -0.82510000      -0.01250000
N        0.11000000      -1.43850000      -0.00670000
H        1.42070000       3.35620000       0.00650000
H        5.24440000       0.37790000      -0.04680000
