27
Properties=species:S:1:pos:R:3 gdb_122013=T pbc="F F F"
C       -0.00440000       1.50530000       0.11590000
C       -0.09040000      -0.00570000      -0.11130000
C        0.84070000      -0.48320000      -1.21880000
O        0.69460000      -1.88050000      -1.35650000
C        1.40330000      -2.47070000      -2.44160000
C        2.89560000      -2.61730000      -2.12780000
C        0.74150000      -3.82170000      -2.71950000
C       -0.72290000      -3.71500000      -3.15630000
C       -1.38010000      -5.07860000      -3.38280000
H        1.00920000       1.81010000       0.39980000
H       -0.27550000       2.06180000      -0.78820000
H       -0.68090000       1.82240000       0.91480000
H        0.16170000      -0.54360000       0.80990000
H       -1.11560000      -0.29480000      -0.37000000
H        0.59400000       0.02200000      -2.16910000
H        1.88050000      -0.21100000      -0.97290000
H        1.28640000      -1.82810000      -3.33250000
H        3.42250000      -3.07340000      -2.97210000
H        3.36430000      -1.64940000      -1.92890000
H        3.03630000      -3.25270000      -1.24740000
H        1.32390000      -4.34300000      -3.49020000
H        0.81290000      -4.42990000      -1.80780000
H       -1.27380000      -3.15420000      -2.39450000
H       -0.78220000      -3.12230000      -4.07940000
H       -0.85930000      -5.64920000      -4.16040000
H       -1.36560000      -5.68150000      -2.46780000
H       -2.42440000      -4.97190000      -3.69320000
