19
Properties=species:S:1:pos:R:3 gdb_70689=T pbc="F F F"
C        0.01260000       1.51510000      -0.00480000
C        0.04500000       0.00120000      -0.01730000
C       -0.82400000      -0.73690000       1.01290000
C        0.66160000      -0.74920000       1.15790000
O        1.31580000      -1.96980000       0.96560000
C        1.84880000      -2.17010000      -0.33310000
C        0.74820000      -2.03900000      -1.39440000
C        0.20030000      -0.61920000      -1.37200000
O       -0.01670000       0.00820000      -2.38640000
H        0.92040000       1.93220000      -0.45120000
H       -0.83720000       1.88210000      -0.58630000
H       -0.07520000       1.89540000       1.01720000
H       -1.42340000      -0.11320000       1.66730000
H       -1.28670000      -1.67200000       0.71950000
H        1.12040000      -0.14020000       1.93390000
H        2.65950000      -1.45380000      -0.53830000
H        2.27890000      -3.17510000      -0.33020000
H        1.11860000      -2.24650000      -2.40150000
H       -0.04600000      -2.76020000      -1.16620000
