20
Properties=species:S:1:pos:R:3 gdb_51168=T pbc="F F F"
N       -0.08940000       1.29300000      -0.29930000
C       -0.11030000       0.03160000      -0.32720000
O       -1.13160000      -0.63740000       0.25220000
C       -1.02850000      -2.04040000       0.27300000
C       -1.16730000      -2.81060000      -1.01530000
C       -2.26120000      -2.86710000       0.03790000
C       -2.24820000      -4.02580000       1.02380000
C       -0.78110000      -4.10460000       1.51600000
C       -0.23980000      -2.66110000       1.41610000
H        0.73390000       1.63460000      -0.79090000
H        0.62890000      -0.62900000      -0.79790000
H       -1.39580000      -2.22720000      -1.90030000
H       -0.53740000      -3.67560000      -1.19800000
H       -3.19720000      -2.37510000      -0.19910000
H       -2.92110000      -3.79270000       1.85730000
H       -2.58860000      -4.97060000       0.58780000
H       -0.70210000      -4.50780000       2.52840000
H       -0.20060000      -4.76920000       0.86850000
H        0.84530000      -2.62660000       1.27060000
H       -0.46840000      -2.09010000       2.32350000
