15
Properties=species:S:1:pos:R:3 gdb_42679=T pbc="F F F"
O        0.01120000      -0.00900000      -0.03280000
C       -0.03710000       1.19020000       0.00310000
C       -1.20840000       2.12720000       0.06900000
C       -0.87550000       3.36880000      -0.84240000
C       -1.64190000       4.27840000       0.14510000
C       -0.81330000       3.31530000       1.02580000
C        0.41250000       3.50860000       0.05460000
C        1.15130000       2.20300000      -0.00740000
O        2.32720000       1.96480000      -0.05350000
H       -2.21860000       1.72370000       0.09110000
H       -0.89270000       3.37760000      -1.93280000
H       -1.35290000       5.33250000       0.16560000
H       -2.72820000       4.16040000       0.17790000
H       -0.75790000       3.26170000       2.11360000
H        0.97120000       4.44220000       0.06270000
