21
Properties=species:S:1:pos:R:3 gdb_112129=T pbc="F F F"
C        0.07880000       1.47660000      -0.01920000
O       -0.21010000       0.10240000      -0.15220000
C        0.58830000      -0.56000000      -1.14590000
C        2.05730000      -0.63520000      -0.76110000
C        2.51290000      -1.34050000       0.27230000
C        1.62360000      -2.19690000       1.13880000
C        1.04200000      -3.39150000       0.36490000
C        0.13560000      -3.06030000      -0.79110000
C       -0.06510000      -1.89850000      -1.41460000
H        1.10350000       1.65400000       0.33700000
H       -0.05420000       2.01290000      -0.97300000
H       -0.62430000       1.88290000       0.71230000
H        0.51770000       0.02930000      -2.07440000
H        2.75120000      -0.06130000      -1.36990000
H        3.57830000      -1.33260000       0.49200000
H        2.18070000      -2.57070000       2.00330000
H        0.79400000      -1.59100000       1.51870000
H        1.85890000      -4.03230000      -0.00210000
H        0.47600000      -4.02210000       1.06390000
H       -0.43420000      -3.91450000      -1.15660000
H       -0.80370000      -1.87950000      -2.21230000
