23
Properties=species:S:1:pos:R:3 gdb_76571=T pbc="F F F"
C       -0.08660000       0.90010000      -2.01920000
C       -0.02780000      -0.20980000      -0.99240000
C        1.25150000      -0.60890000      -0.25630000
C        2.58410000       0.06950000      -0.48730000
C        0.10550000       0.05170000       0.47830000
C        0.20800000       1.43220000       1.13810000
C       -0.62040000       1.26630000       2.43230000
C       -0.60920000      -0.25360000       2.62650000
O       -0.68730000      -0.77870000       1.31020000
H        0.55060000       1.74910000      -1.75610000
H        0.23500000       0.54290000      -3.00390000
H       -1.10910000       1.28030000      -2.12370000
H       -0.68190000      -1.04940000      -1.21510000
H        1.32400000      -1.67570000      -0.05990000
H        2.48320000       1.14560000      -0.65360000
H        3.24780000      -0.06580000       0.37460000
H        3.09330000      -0.34840000      -1.36310000
H        1.24840000       1.68020000       1.36980000
H       -0.18260000       2.23090000       0.50260000
H       -0.20360000       1.81300000       3.28180000
H       -1.64750000       1.60970000       2.27710000
H        0.31850000      -0.57830000       3.12670000
H       -1.46040000      -0.63900000       3.19400000
