16
Properties=species:S:1:pos:R:3 gdb_24110=T pbc="F F F"
N       -0.00940000      -1.16420000       0.00670000
C       -0.03060000      -0.00930000      -0.01820000
C       -0.01800000       1.45000000      -0.04690000
C        1.42070000       2.01080000       0.05290000
N        1.43740000       3.45700000       0.01970000
C        1.30800000       4.26170000      -1.09590000
C        1.31030000       5.54710000      -0.62490000
N        1.43470000       5.56100000       0.74540000
C        1.50360000       4.29920000       1.09590000
H       -0.48810000       1.79580000      -0.97330000
H       -0.62180000       1.83440000       0.78170000
H        1.88130000       1.68060000       0.98700000
H        2.02830000       1.62040000      -0.76790000
H        1.24460000       3.84640000      -2.08860000
H        1.23920000       6.46210000      -1.19290000
H        1.61300000       3.92240000       2.10300000
