18
Properties=species:S:1:pos:R:3 gdb_62904=T pbc="F F F"
C        0.03590000       1.67730000      -0.00020000
C       -0.02730000       0.15800000      -0.00170000
O       -1.33100000      -0.28890000      -0.25140000
C        1.17150000      -0.63690000      -0.64440000
N        1.98770000      -0.13810000       0.53200000
C        0.68580000      -0.63650000       1.12910000
C        0.76910000      -1.90240000       0.19420000
C       -0.32590000      -2.79560000      -0.12100000
C       -1.14280000      -3.64340000      -0.36820000
H        1.03720000       2.03710000       0.23030000
H       -0.25480000       2.06310000      -0.98620000
H       -0.67440000       2.07430000       0.73170000
H       -1.65960000       0.15810000      -1.03800000
H        1.55270000      -0.60690000      -1.66720000
H        2.72520000      -0.81800000       0.73500000
H        0.48980000      -0.61070000       2.20240000
H        1.65350000      -2.50280000       0.43880000
H       -1.89940000      -4.35460000      -0.58880000
