16
Properties=species:S:1:pos:R:3 gdb_107381=T pbc="F F F"
O       -0.05430000       1.41530000       0.20580000
C        0.03360000       0.02100000      -0.05960000
C       -1.36450000      -0.52070000      -0.04600000
C       -2.05850000      -1.00110000       1.22160000
C       -1.75110000      -1.96540000       0.10460000
O       -2.77260000      -2.23970000      -0.82830000
C       -3.11050000      -1.07770000      -1.49660000
O       -4.02220000      -1.00350000      -2.26870000
N       -2.22860000      -0.09420000      -1.10440000
H        0.81020000       1.80800000       0.05250000
H        0.48540000      -0.16880000      -1.04440000
H        0.63610000      -0.50040000       0.70020000
H       -1.44700000      -1.08870000       2.11310000
H       -3.09050000      -0.71330000       1.38800000
H       -1.05030000      -2.78250000       0.22000000
H       -2.45490000       0.87290000      -1.26690000
