20
Properties=species:S:1:pos:R:3 gdb_40171=T pbc="F F F"
C       -0.01440000       1.48980000       0.04120000
N        1.27580000       0.77180000      -0.04280000
C        0.01460000       0.01080000      -0.02170000
C       -0.26930000      -0.80440000       1.24020000
O       -0.25780000      -2.21510000       1.01450000
C       -0.63790000      -2.59240000      -0.30020000
C        0.39700000      -2.06400000      -1.32890000
C       -0.41480000      -0.73280000      -1.27280000
C       -1.66100000      -1.60680000      -0.93340000
H       -0.19150000       1.99520000       0.98780000
H       -0.37190000       2.03230000      -0.83080000
H        1.63410000       0.82250000      -0.99500000
H        0.48650000      -0.59090000       2.00000000
H       -1.25080000      -0.51260000       1.64290000
H       -0.86650000      -3.65880000      -0.26100000
H        1.44190000      -2.04620000      -1.01100000
H        0.30240000      -2.55970000      -2.29860000
H       -0.43630000      -0.08330000      -2.15260000
H       -2.10570000      -2.03620000      -1.83400000
H       -2.44930000      -1.18930000      -0.30280000
