18
Properties=species:S:1:pos:R:3 gdb_80539=T pbc="F F F"
C        0.07980000       1.37290000      -0.21260000
N        0.02570000      -0.07240000       0.01740000
C       -1.24850000      -0.56940000       0.67540000
C       -0.99210000      -2.08170000       0.70890000
C        0.53710000      -2.07070000       1.07610000
O        1.36340000      -2.56370000       0.04960000
C        0.71800000      -0.55340000       1.28140000
C       -0.57800000      -0.09950000       1.98910000
O       -0.86560000       0.59160000       2.91950000
H        1.09710000       1.64420000      -0.50780000
H       -0.59030000       1.62120000      -1.04060000
H       -0.20350000       1.98220000       0.65970000
H       -2.19770000      -0.18250000       0.30830000
H       -1.61210000      -2.59280000       1.45000000
H       -1.13930000      -2.55380000      -0.26510000
H        0.76920000      -2.64880000       1.97240000
H        1.22520000      -1.96500000      -0.69760000
H        1.71120000      -0.17060000       1.50830000
