18
Properties=species:S:1:pos:R:3 gdb_99499=T pbc="F F F"
C        0.18160000       1.47240000       0.11110000
N       -0.25690000       0.14880000      -0.30800000
C        0.51240000      -0.47500000      -1.35610000
C        1.98740000      -0.43620000      -1.16470000
N        3.13000000      -0.38090000      -0.99460000
C        0.08420000      -1.96730000      -1.45050000
O       -0.37850000      -2.53920000      -0.48420000
N        0.28930000      -2.53350000      -2.66300000
C        0.04330000      -3.94170000      -2.92230000
H        1.22490000       1.51550000       0.46170000
H        0.07830000       2.17740000      -0.72200000
H       -0.47060000       1.81580000       0.91790000
H       -0.33020000      -0.50760000       0.46260000
H        0.30710000       0.02630000      -2.31260000
H        0.71420000      -1.97800000      -3.38780000
H       -0.64870000      -4.06830000      -3.76070000
H        0.97520000      -4.47120000      -3.14740000
H       -0.40090000      -4.36830000      -2.02300000
