17
Properties=species:S:1:pos:R:3 gdb_13120=T pbc="F F F"
C        0.39190000       0.77170000       0.45430000
O       -0.27160000       0.37220000      -0.73450000
C        0.48490000      -0.45840000      -1.57820000
C        0.49460000      -1.93140000      -1.15190000
C        1.19320000      -2.92700000      -2.12980000
N        2.09200000      -3.27630000      -1.02870000
C        1.55080000      -2.40970000      -0.11440000
O        1.82790000      -2.15630000       1.02940000
H        0.64990000      -0.07930000       1.09500000
H        1.31550000       1.32530000       0.22340000
H       -0.29320000       1.43810000       0.98390000
H        0.01230000      -0.39350000      -2.56580000
H        1.51900000      -0.08780000      -1.68170000
H       -0.51950000      -2.23140000      -0.87490000
H        0.56940000      -3.75270000      -2.48480000
H        1.69400000      -2.45400000      -2.98210000
H        2.87300000      -3.91200000      -0.96630000
