19
Properties=species:S:1:pos:R:3 gdb_124986=T pbc="F F F"
C       -0.10400000       1.52210000       0.19400000
C       -0.03510000       0.04270000      -0.00230000
C        0.02700000      -0.73800000      -1.14770000
C        0.06120000      -0.28450000      -2.57570000
C        1.48480000      -0.11310000      -3.11160000
O        1.39090000       0.31220000      -4.46200000
C        0.08010000      -2.06620000      -0.65870000
N        0.05140000      -2.12270000       0.66770000
N       -0.01540000      -0.82920000       1.04070000
H        0.86940000       1.94900000       0.46420000
H       -0.43260000       2.01250000      -0.72540000
H       -0.81280000       1.79080000       0.98490000
H       -0.45810000      -1.00580000      -3.21640000
H       -0.46400000       0.66990000      -2.69690000
H        2.02390000       0.62270000      -2.49330000
H        2.02580000      -1.06840000      -3.02440000
H        2.28140000       0.39510000      -4.81490000
H        0.12780000      -2.98140000      -1.23250000
H       -0.06560000      -0.60800000       2.02110000
