20
Properties=species:S:1:pos:R:3 gdb_115213=T pbc="F F F"
C       -0.08320000       1.59980000      -0.05340000
C       -0.03250000       0.06990000      -0.07670000
C       -1.41190000      -0.57000000       0.04040000
C       -1.35820000      -2.08810000      -0.03290000
O       -2.63950000      -2.69530000       0.20160000
C       -3.47520000      -2.14120000       1.12350000
N       -4.43020000      -2.78450000       1.64560000
C       -3.29990000      -0.66400000       1.41910000
O       -1.96690000      -0.21070000       1.29910000
H        0.92320000       2.02470000      -0.10540000
H       -0.65540000       1.98940000      -0.90250000
H       -0.55930000       1.95320000       0.86430000
H        0.43450000      -0.28030000      -1.00540000
H        0.58770000      -0.29690000       0.75000000
H       -2.06740000      -0.19470000      -0.76630000
H       -1.04520000      -2.43190000      -1.02240000
H       -0.64840000      -2.46570000       0.71470000
H       -4.44290000      -3.74480000       1.29480000
H       -3.95680000      -0.10490000       0.73040000
H       -3.63180000      -0.46790000       2.43870000
