19
Properties=species:S:1:pos:R:3 gdb_95387=T pbc="F F F"
O        0.18040000       1.30310000      -0.42430000
C        0.03290000      -0.02460000       0.04570000
C        0.36150000      -0.21780000       1.53870000
O       -0.34210000      -1.38620000       1.92310000
C       -1.57340000      -1.42760000       1.19540000
C       -2.77650000      -0.85340000       1.98340000
O       -3.46660000       0.00320000       1.09110000
C       -2.47360000       0.63700000       0.29440000
C       -1.43780000      -0.46470000      -0.01490000
H        1.11760000       1.51970000      -0.43330000
H        0.64380000      -0.71830000      -0.54940000
H        1.42400000      -0.38060000       1.74430000
H        0.03160000       0.67260000       2.09830000
H       -1.73590000      -2.46980000       0.91070000
H       -3.47900000      -1.61490000       2.33070000
H       -2.38990000      -0.30660000       2.85910000
H       -2.96140000       1.03850000      -0.59570000
H       -2.00870000       1.47300000       0.83610000
H       -1.67810000      -0.95680000      -0.95820000
