17
Properties=species:S:1:pos:R:3 gdb_18828=T pbc="F F F"
C       -0.21960000       1.28850000      -0.25350000
C       -0.03910000      -0.06530000       0.35660000
C       -1.05270000      -0.95060000       0.54930000
C       -1.70560000      -1.39840000      -0.76990000
N       -0.69260000      -2.54770000      -0.76610000
C        0.68660000      -2.23780000      -0.10830000
C        1.26160000      -0.83850000       0.17190000
C       -0.52290000      -2.38010000       0.70310000
H        0.25080000       1.35880000      -1.24420000
H       -1.27880000       1.54480000      -0.34620000
H        0.25110000       2.06440000       0.36480000
H       -2.69100000      -1.87140000      -0.71530000
H       -1.66340000      -0.70810000      -1.61820000
H        1.34780000      -3.07520000      -0.31180000
H        1.82320000      -0.39060000      -0.65640000
H        1.95670000      -0.90710000       1.02140000
H       -0.79940000      -3.14210000       1.42350000
