14
Properties=species:S:1:pos:R:3 gdb_42673=T pbc="F F F"
O        0.01070000      -0.08220000       0.04540000
C       -0.01530000       1.10920000       0.02140000
C       -1.02600000       2.25040000       0.02270000
C       -0.03660000       3.11370000       0.89680000
N        0.01290000       4.29430000      -0.01900000
C       -0.05830000       3.09350000      -0.92460000
C       -0.08680000       3.15340000      -2.35180000
C       -0.12570000       3.20740000      -3.55220000
C        0.94970000       2.28840000      -0.00390000
H       -2.11360000       2.28210000       0.02330000
H       -0.01380000       3.18500000       1.98200000
H       -0.88840000       4.78040000      -0.02100000
H       -0.15280000       3.25410000      -4.61320000
H        2.03250000       2.37130000      -0.02940000
