16
Properties=species:S:1:pos:R:3 gdb_53738=T pbc="F F F"
C        0.10700000       1.46190000       0.27810000
C       -0.00290000      -0.01610000      -0.03240000
C        0.65230000      -0.58440000      -1.23120000
O        1.22720000      -0.76300000       0.05730000
C       -1.16680000      -0.68630000       0.49760000
C       -2.15310000      -1.20780000       0.95510000
C       -3.37570000      -1.78940000       1.49290000
N       -3.22370000      -3.06960000       1.94060000
O       -4.43020000      -1.18550000       1.52340000
H        1.02020000       1.86820000      -0.16310000
H       -0.75660000       2.00220000      -0.12050000
H        0.13910000       1.62200000       1.35940000
H        0.24250000      -1.48020000      -1.69370000
H        1.18580000       0.09060000      -1.89950000
H       -2.31950000      -3.50640000       1.98390000
H       -4.01050000      -3.51180000       2.38730000
