20
Properties=species:S:1:pos:R:3 gdb_120615=T pbc="F F F"
C        0.49250000       1.14350000      -0.01690000
O        0.74370000      -0.21570000      -0.28600000
C       -0.05690000      -0.72380000      -1.33100000
C        0.20890000      -2.20170000      -1.45220000
N        0.06320000      -2.80380000      -2.77040000
C        1.41360000      -2.74330000      -2.18320000
C        2.45380000      -1.86380000      -2.83860000
C        1.91200000      -4.02990000      -1.60740000
O        1.20140000      -4.98260000      -1.38360000
H        0.69540000       1.77860000      -0.89370000
H       -0.55080000       1.31250000       0.29310000
H        1.15610000       1.44340000       0.79760000
H       -1.12770000      -0.56610000      -1.11370000
H        0.15330000      -0.21460000      -2.28340000
H       -0.10900000      -2.79050000      -0.59420000
H       -0.27460000      -3.76100000      -2.66120000
H        2.00450000      -0.95600000      -3.24180000
H        3.22500000      -1.57440000      -2.11750000
H        2.93810000      -2.38860000      -3.66910000
H        3.00180000      -4.06270000      -1.39340000
