16
Properties=species:S:1:pos:R:3 gdb_48113=T pbc="F F F"
O       -0.62430000       1.54570000       0.88780000
C        0.18880000       1.09890000       0.12130000
C        1.25330000       1.95200000      -0.58340000
O        1.94130000       1.41700000      -1.42040000
C        1.31790000       3.41390000      -0.21950000
C        1.52920000       3.84270000       1.28720000
C        2.78430000       4.59650000       0.83340000
N        3.67240000       3.56670000       0.24850000
C        2.59980000       4.16650000      -0.58020000
H        0.23230000       0.02840000      -0.17290000
H        0.41660000       3.89910000      -0.60900000
H        0.72120000       4.48120000       1.64480000
H        1.70830000       3.03880000       2.00350000
H        3.18360000       5.51950000       1.23400000
H        4.54390000       4.02360000      -0.01760000
H        2.82880000       4.67300000      -1.50850000
