21
Properties=species:S:1:pos:R:3 gdb_105306=T pbc="F F F"
C        0.01670000       1.54760000       0.15320000
C       -0.11190000       0.03370000      -0.03770000
C        0.68770000      -0.51260000      -1.23560000
C        2.27130000      -0.46660000      -1.14610000
C        2.31880000      -1.98500000      -1.34110000
C        1.56670000      -2.67140000      -0.23900000
C        0.79410000      -2.05560000      -1.37290000
C        0.21570000       0.07450000      -2.48370000
C       -0.18730000       0.54730000      -3.51420000
H        1.05800000       1.84060000       0.32600000
H       -0.33930000       2.08640000      -0.72940000
H       -0.56900000       1.88110000       1.01520000
H        0.22530000      -0.48090000       0.86820000
H       -1.16600000      -0.23550000      -0.17610000
H        2.70950000       0.10270000      -1.96580000
H        2.67610000      -0.09720000      -0.19760000
H        3.03300000      -2.50870000      -1.96390000
H        1.59680000      -3.75640000      -0.25730000
H        1.54480000      -2.25010000       0.76290000
H        0.14820000      -2.64230000      -2.01440000
H       -0.53820000       0.96780000      -4.42370000
