13
Properties=species:S:1:pos:R:3 gdb_5358=T pbc="F F F"
O       -0.07870000      -0.02720000      -0.00250000
C       -0.01120000       1.17760000       0.00690000
C        1.26150000       1.94510000      -0.00060000
C        2.49450000       1.28980000      -0.01990000
C        3.65040000       2.05980000      -0.02610000
N        3.65050000       3.39870000      -0.01470000
C        2.46700000       4.01520000       0.00370000
C        1.24930000       3.33880000       0.01140000
H       -0.92780000       1.80810000       0.02230000
H        2.52870000       0.20660000      -0.02950000
H        4.62750000       1.58370000      -0.04100000
H        2.49220000       5.10200000       0.01270000
H        0.31160000       3.88610000       0.02640000
