17
Properties=species:S:1:pos:R:3 gdb_126370=T pbc="F F F"
C        0.17850000       1.28440000      -0.21920000
C       -0.06760000      -0.19960000       0.10680000
C        0.69810000      -0.66010000       1.29940000
N        0.24980000      -1.02630000       2.46400000
C        1.41070000      -1.32310000       3.14660000
C        1.36780000      -1.79510000       4.56950000
O        0.37770000      -2.78560000       4.75030000
N        2.50550000      -1.15690000       2.45910000
O        2.03430000      -0.70300000       1.21450000
H        1.23670000       1.47040000      -0.41970000
H       -0.39500000       1.57380000      -1.10350000
H       -0.12980000       1.92380000       0.61280000
H       -1.12480000      -0.38280000       0.31080000
H        0.21830000      -0.81820000      -0.75120000
H        2.33210000      -2.22980000       4.84270000
H        1.19500000      -0.92440000       5.22300000
H       -0.42510000      -2.45840000       4.32680000
