17
Properties=species:S:1:pos:R:3 gdb_26515=T pbc="F F F"
C       -0.01310000       1.57710000       0.10930000
C        0.02890000       0.08310000       0.05700000
C       -0.80310000      -0.87380000       0.87260000
C        0.72250000      -0.95120000       0.94550000
C        1.16470000      -1.60060000      -0.34350000
N        1.36390000      -2.73970000      -0.95810000
C        0.88460000      -2.48070000      -2.23730000
C        0.31510000      -1.22830000      -2.34280000
N        0.59050000      -0.63370000      -1.12580000
H        0.94970000       2.00730000      -0.18170000
H       -0.78340000       1.97460000      -0.56110000
H       -0.25180000       1.91220000       1.12280000
H       -1.30120000      -0.44420000       1.73880000
H       -1.35250000      -1.67220000       0.38400000
H        1.28330000      -0.79160000       1.85560000
H        1.00320000      -3.20910000      -3.02690000
H       -0.11780000      -0.71000000      -3.18230000
