17
Properties=species:S:1:pos:R:3 gdb_33061=T pbc="F F F"
O       -0.08660000       1.45710000      -0.10890000
C        0.03420000       0.04600000      -0.07780000
C       -1.37320000      -0.52610000       0.12460000
C       -1.41230000      -2.01500000       0.13630000
C       -1.64820000      -2.88560000       1.14180000
N       -1.54270000      -4.17580000       0.62410000
C       -1.24860000      -4.15140000      -0.73310000
O       -1.10460000      -5.08560000      -1.49660000
N       -1.15950000      -2.78930000      -1.00210000
H        0.79120000       1.83460000      -0.21610000
H        0.46570000      -0.34140000      -1.01480000
H        0.68450000      -0.29200000       0.74350000
H       -1.76850000      -0.15040000       1.07320000
H       -2.02000000      -0.12470000      -0.66650000
H       -1.87650000      -2.69720000       2.17670000
H       -1.69530000      -5.03730000       1.11650000
H       -0.99090000      -2.44780000      -1.93190000
