18
Properties=species:S:1:pos:R:3 gdb_80741=T pbc="F F F"
O       -0.27040000       1.50990000       0.01920000
C       -0.05740000       0.12910000      -0.01040000
C       -0.39140000      -0.72900000       1.19110000
C       -1.18410000      -0.06540000       2.31540000
C       -2.67410000      -0.11800000       1.85580000
C       -2.61230000      -0.10990000       0.29710000
C       -1.27030000      -0.75210000      -0.05410000
C       -3.32160000      -1.33790000       2.34420000
N       -3.82680000      -2.30520000       2.72680000
H        0.46440000       1.91820000       0.48930000
H        0.79450000      -0.18270000      -0.61400000
H        0.26240000      -1.55870000       1.43350000
H       -1.03640000      -0.57120000       3.27090000
H       -0.89430000       0.98220000       2.44210000
H       -3.24440000       0.73350000       2.24050000
H       -3.44830000      -0.65630000      -0.14220000
H       -2.65830000       0.92260000      -0.05730000
H       -1.26320000      -1.59900000      -0.72960000
