17
Properties=species:S:1:pos:R:3 gdb_5122=T pbc="F F F"
C       -0.03400000       1.43650000       0.01300000
N        0.00580000      -0.00770000       0.01450000
C        0.00260000      -0.80050000      -1.10010000
C        0.04810000      -2.11930000      -0.70320000
C        0.07990000      -2.10940000       0.71640000
O        0.12890000      -3.17970000       1.57080000
C        0.05350000      -0.80140000       1.15160000
C        0.07000000      -0.25830000       2.53960000
H        0.85390000       1.86190000       0.49410000
H       -0.06780000       1.78800000      -1.01990000
H       -0.92060000       1.81300000       0.53540000
H       -0.03190000      -0.36330000      -2.08550000
H        0.05730000      -2.98270000      -1.35190000
H        0.13950000      -3.98400000       1.04570000
H        0.94110000       0.38070000       2.73700000
H       -0.82430000       0.33340000       2.77630000
H        0.10800000      -1.09320000       3.24290000
