16
Properties=species:S:1:pos:R:3 gdb_96662=T pbc="F F F"
C       -0.56320000       1.70590000      -0.45190000
N       -0.69200000       0.26660000      -0.40360000
C        0.19340000      -0.50390000      -0.83370000
C        1.52540000      -0.27760000      -1.48560000
O       -0.13900000      -1.88400000      -0.76680000
C        0.51120000      -2.65440000       0.13100000
O        1.36820000      -2.29840000       0.88870000
C       -0.03480000      -4.08880000       0.02880000
O        0.39890000      -4.97650000       0.70480000
H        0.35140000       2.08680000      -0.92340000
H       -1.42740000       2.11520000      -0.98580000
H       -0.61130000       2.09240000       0.57150000
H        2.31200000      -0.70310000      -0.85650000
H        1.55320000      -0.78880000      -2.45300000
H        1.72950000       0.78150000      -1.64000000
H       -0.84810000      -4.21980000      -0.71200000
