15
Properties=species:S:1:pos:R:3 gdb_29176=T pbc="F F F"
N        0.15000000       1.39310000       0.07940000
C        0.00270000       0.00330000       0.01360000
C       -1.08080000      -0.78700000       0.05520000
N       -0.65460000      -2.12370000      -0.02970000
C        0.73840000      -2.19410000      -0.04760000
N        1.52480000      -3.19270000      -0.05420000
N        1.15060000      -0.83020000      -0.05660000
C        2.46100000      -0.35260000      -0.02110000
O        3.45820000      -1.01900000      -0.08560000
H        0.49180000       1.80180000      -0.78620000
H       -0.72370000       1.83980000       0.32680000
H       -2.12400000      -0.52130000       0.06680000
H       -1.19250000      -2.89980000       0.31580000
H        0.99430000      -4.06260000      -0.04540000
H        2.46280000       0.74570000       0.08300000
