20
Properties=species:S:1:pos:R:3 gdb_88106=T pbc="F F F"
C       -0.16770000       1.50900000      -0.09870000
C        0.01930000       0.01460000       0.04100000
C        1.36300000      -0.65410000      -0.20390000
C        0.76260000      -0.61350000       1.17840000
C        1.41300000       0.13690000       2.31490000
C        2.39860000      -0.80940000       3.01460000
N        1.82230000      -2.12020000       3.29910000
C        0.81850000      -2.48220000       2.62300000
O        0.17520000      -1.83660000       1.61520000
H        0.72100000       2.06390000       0.21570000
H       -0.36510000       1.77440000      -1.14270000
H       -1.01260000       1.86390000       0.50140000
H       -0.83280000      -0.57900000      -0.28010000
H        1.37200000      -1.60620000      -0.72160000
H        2.22360000      -0.01980000      -0.39610000
H        1.92140000       1.03250000       1.94890000
H        0.64380000       0.46090000       3.02680000
H        3.29450000      -0.94900000       2.39480000
H        2.74300000      -0.37660000       3.96010000
H        0.32680000      -3.43390000       2.81620000
