18
Properties=species:S:1:pos:R:3 gdb_65486=T pbc="F F F"
C       -0.55870000       1.56850000      -0.08630000
C        0.11120000       0.19680000       0.02660000
C        1.39400000      -0.04260000      -0.85750000
C        2.08240000      -0.61160000       0.38280000
C        2.86270000      -1.84090000       0.51710000
O        3.46620000      -0.54060000       0.63760000
C        0.99660000      -0.05860000       1.30550000
C       -0.86720000      -0.87200000      -0.16100000
N       -1.64330000      -1.71630000      -0.30990000
H        0.18590000       2.35690000       0.05630000
H       -1.01810000       1.70080000      -1.07020000
H       -1.33810000       1.68790000       0.67180000
H        1.28400000      -0.68970000      -1.72890000
H        1.83350000       0.91090000      -1.16380000
H        2.81030000      -2.41710000       1.43960000
H        3.14310000      -2.40370000      -0.37190000
H        1.29600000       0.88930000       1.76160000
H        0.58570000      -0.71780000       2.07150000
