22
Properties=species:S:1:pos:R:3 gdb_6474=T pbc="F F F"
C        0.34320000       1.40570000      -0.21930000
C        0.10050000      -0.07880000       0.07100000
C        0.62460000      -0.54130000       1.43240000
C       -0.06370000       0.14180000       2.61030000
C        0.79530000      -2.07420000       1.59300000
C        2.29140000      -1.75760000       1.79840000
C        3.30360000      -2.39020000       0.86390000
O        2.07210000      -0.35520000       1.51500000
H        1.40240000       1.64620000      -0.08960000
H        0.06080000       1.65010000      -1.24770000
H       -0.23650000       2.05480000       0.44390000
H       -0.97090000      -0.31290000       0.01090000
H        0.59600000      -0.67920000      -0.70080000
H       -1.14490000      -0.03540000       2.58620000
H        0.32550000      -0.24260000       3.55760000
H        0.10950000       1.22120000       2.59160000
H        0.27470000      -2.52850000       2.43810000
H        0.57970000      -2.64550000       0.68650000
H        2.61850000      -1.88630000       2.84040000
H        2.98230000      -2.30080000      -0.17850000
H        4.27630000      -1.89820000       0.96560000
H        3.43190000      -3.45260000       1.10000000
