17
Properties=species:S:1:pos:R:3 gdb_27175=T pbc="F F F"
O        0.57060000       1.25850000      -0.01270000
C        0.24600000      -0.06700000      -0.02020000
C       -0.00190000      -0.87730000      -1.11530000
N       -0.31380000      -2.12960000      -0.60210000
C       -0.24340000      -2.11250000       0.76000000
C        0.10310000      -0.84070000       1.16000000
C       -0.00620000      -0.59660000      -2.56040000
C        1.02080000       0.30830000      -3.15350000
N        1.07130000      -1.13040000      -3.44050000
H        0.45670000       1.60080000      -0.90520000
H       -0.53010000      -2.93310000      -1.16530000
H       -0.44290000      -2.99910000       1.34000000
H        0.23270000      -0.49110000       2.17160000
H       -0.97290000      -0.62700000      -3.06260000
H        0.75570000       0.93580000      -3.99960000
H        1.77890000       0.72590000      -2.49630000
H        1.78470000      -1.55060000      -2.84760000
