13
Properties=species:S:1:pos:R:3 gdb_21183=T pbc="F F F"
C       -0.05630000       1.46540000       0.08270000
N        0.02890000       0.02610000      -0.04860000
C        0.61620000      -0.62110000      -1.07300000
C        1.23360000       0.00820000      -2.17180000
N        1.77890000      -0.71720000      -3.12350000
N        1.74240000      -2.05170000      -3.03910000
N        1.16630000      -2.63900000      -2.01230000
N        0.60420000      -1.96490000      -1.03010000
H        0.93620000       1.92950000       0.13360000
H       -0.60860000       1.91790000      -0.74990000
H       -0.58660000       1.69950000       1.00650000
H       -0.36700000      -0.56900000       0.66300000
H        1.28730000       1.08710000      -2.28270000
