20
Properties=species:S:1:pos:R:3 gdb_78942=T pbc="F F F"
C       -0.18190000       1.50550000      -0.04860000
C       -0.03780000      -0.01230000      -0.02390000
C        1.16540000      -0.55550000      -0.84700000
C        1.27530000      -2.05700000      -0.52480000
N        2.40470000      -1.92460000       0.46420000
C        2.09640000      -0.42440000       0.40420000
C        0.75590000      -0.56260000       1.19480000
C        0.98320000      -2.07160000       0.93930000
C        0.51410000      -3.24360000       1.73880000
H        0.77570000       2.00300000       0.14290000
H       -0.54580000       1.85150000      -1.02210000
H       -0.89060000       1.84710000       0.71340000
H       -1.00170000      -0.49750000      -0.21910000
H        1.40980000      -0.19920000      -1.84650000
H        1.18920000      -2.91500000      -1.18150000
H        2.88720000       0.30410000       0.56560000
H        0.59310000      -0.21600000       2.21480000
H       -0.57900000      -3.32380000       1.71520000
H        0.93280000      -4.17150000       1.33670000
H        0.82610000      -3.16080000       2.78560000
