16
Properties=species:S:1:pos:R:3 gdb_28168=T pbc="F F F"
C       -0.02070000       1.46650000       0.04350000
C       -0.00220000      -0.02280000      -0.03610000
N       -0.04340000      -0.73530000      -1.13740000
C       -0.00350000      -2.05430000      -0.71570000
C        0.06260000      -2.10540000       0.66360000
N        0.10250000      -3.39790000       1.09150000
C        0.06000000      -4.19780000      -0.05760000
C       -0.00520000      -3.40620000      -1.18060000
N        0.06460000      -0.81190000       1.11770000
H        0.88400000       1.86550000       0.51840000
H       -0.07980000       1.86360000      -0.97050000
H       -0.88240000       1.83860000       0.61120000
H        0.15160000      -3.74030000       2.03320000
H        0.08100000      -5.27080000       0.04200000
H       -0.04790000      -3.76480000      -2.19690000
H        0.10440000      -0.47480000       2.06320000
