16
Properties=species:S:1:pos:R:3 gdb_103323=T pbc="F F F"
O       -0.00880000       1.45130000       0.09410000
C        0.03640000       0.02190000       0.11740000
C       -1.38490000      -0.52590000       0.06040000
O       -2.19570000       0.11520000       0.99320000
C       -2.01180000      -0.78910000      -1.36680000
N       -1.05390000      -1.97250000      -1.44220000
C       -1.58610000      -2.06260000      -0.01150000
C       -2.97480000      -1.76460000      -0.64600000
O       -4.07480000      -2.20830000      -0.72090000
H       -0.15630000       1.72960000      -0.81600000
H        0.65630000      -0.38970000      -0.68160000
H        0.48050000      -0.23950000       1.08300000
H       -1.86600000       1.02390000       1.04560000
H       -2.16510000      -0.11330000      -2.20740000
H       -1.45150000      -2.71870000      -2.01660000
H       -1.25400000      -2.82920000       0.68630000
