25
Properties=species:S:1:pos:R:3 gdb_114693=T pbc="F F F"
C        0.01450000       1.54960000       0.14440000
C       -0.01040000       0.02500000      -0.00600000
C        0.74130000      -0.49210000      -1.23540000
C        2.26790000      -0.21140000      -1.24660000
C        2.87090000      -1.30890000      -2.12210000
C        3.11600000      -2.65400000      -1.47910000
C        1.85420000      -2.42730000      -2.27530000
C        1.64480000      -3.16590000      -3.57650000
C        0.62040000      -2.02130000      -1.45600000
H        1.03680000       1.92540000       0.25720000
H       -0.42260000       2.04000000      -0.73300000
H       -0.55490000       1.87140000       1.02210000
H        0.41740000      -0.44050000       0.89290000
H       -1.05320000      -0.31530000      -0.05570000
H        0.31920000      -0.00410000      -2.12570000
H        2.49450000       0.78520000      -1.63650000
H        2.67410000      -0.24900000      -0.22660000
H        3.50450000      -1.02330000      -2.95570000
H        3.88000000      -3.28940000      -1.91720000
H        3.04650000      -2.72700000      -0.39670000
H        2.59000000      -3.30190000      -4.11250000
H        1.21600000      -4.16120000      -3.40780000
H        0.96180000      -2.62050000      -4.23910000
H        0.59150000      -2.54830000      -0.49320000
H       -0.30750000      -2.27530000      -1.97890000
