17
Properties=species:S:1:pos:R:3 gdb_80469=T pbc="F F F"
O       -0.38080000       1.65180000      -0.12550000
C       -0.20210000       0.28520000      -0.07790000
C       -1.27500000      -0.73760000       0.02290000
C       -2.70010000      -0.30760000      -0.34230000
C       -2.64720000       0.24690000      -1.77110000
O       -2.64880000       1.68370000      -1.73840000
C       -1.29380000      -0.23110000      -2.35960000
O       -1.03860000      -0.18380000      -3.54060000
C       -0.42040000      -0.69760000      -1.25880000
H       -1.19080000       1.87380000      -0.61710000
H        0.71260000       0.06070000       0.46220000
H       -1.16260000      -1.55360000       0.72900000
H       -3.35900000      -1.17950000      -0.31330000
H       -3.10700000       0.43690000       0.34890000
H       -3.47340000      -0.10560000      -2.39760000
H       -2.43660000       1.98860000      -2.63050000
H        0.37460000      -1.39400000      -1.49430000
