16
Properties=species:S:1:pos:R:3 gdb_34463=T pbc="F F F"
N        0.02900000      -1.08780000      -0.03450000
C        0.01640000       0.06830000      -0.04810000
C       -0.06630000       1.50230000      -0.05260000
C       -1.29450000       2.17840000       0.59250000
N       -1.43780000       3.47900000      -0.09370000
C       -0.14200000       3.70060000      -0.72870000
C        0.97010000       3.64170000       0.34740000
N        1.26910000       2.19820000       0.03560000
C        0.41950000       2.31860000      -1.19150000
H       -2.18690000       1.56000000       0.47280000
H       -1.13280000       2.31930000       1.66610000
H       -2.15290000       3.40240000      -0.81140000
H       -0.15530000       4.54130000      -1.42050000
H        1.85560000       4.22350000       0.08540000
H        0.67940000       3.85730000       1.37900000
H        0.71570000       1.94540000      -2.16450000
