13
Properties=species:S:1:pos:R:3 gdb_993=T pbc="F F F"
N        0.08370000       1.42370000       0.10400000
C        0.00920000       0.02210000       0.01500000
C       -1.06160000      -0.81860000       0.02630000
O       -0.64820000      -2.11860000      -0.00710000
C        0.71580000      -2.10160000      -0.03930000
C        1.17650000      -0.82060000      -0.02620000
N        2.48350000      -0.30830000      -0.11370000
H        0.72090000       1.80030000      -0.59070000
H       -0.81870000       1.86860000      -0.00840000
H       -2.12600000      -0.65860000       0.06330000
H        1.20300000      -3.06130000      -0.07710000
H        3.18970000      -1.02550000      -0.00510000
H        2.64120000       0.41160000       0.58440000
