15
Properties=species:S:1:pos:R:3 gdb_126115=T pbc="F F F"
C        0.00720000       1.55860000       0.01000000
C       -0.02970000       0.01910000       0.00260000
C       -1.38380000      -0.51780000       0.01210000
C       -2.51500000      -0.93540000       0.02020000
C       -3.82510000      -1.46060000       0.03030000
N       -4.91280000      -0.71740000       0.04200000
O       -5.95720000      -1.59070000       0.04840000
N       -5.53300000      -2.89140000       0.04080000
C       -4.23390000      -2.83170000       0.02920000
H        1.04290000       1.90920000       0.00240000
H       -0.50220000       1.96380000      -0.86790000
H       -0.48620000       1.95500000       0.90100000
H        0.49930000      -0.36180000      -0.88040000
H        0.51510000      -0.37060000       0.87210000
H       -3.62650000      -3.72260000       0.02100000
