23
Properties=species:S:1:pos:R:3 gdb_112729=T pbc="F F F"
C       -0.03010000       1.58440000      -0.08170000
C        0.02900000       0.06060000       0.07310000
C       -1.34670000      -0.59080000       0.01810000
C       -2.13630000      -0.63140000      -1.32280000
C       -2.67790000      -2.02080000      -0.89620000
O       -2.75900000      -3.06490000      -1.84040000
C       -1.50260000      -2.13790000       0.11560000
C       -0.32900000      -2.95400000      -0.41680000
O       -1.84360000      -2.53900000       1.43100000
H        0.96940000       2.02790000      -0.03580000
H       -0.47670000       1.86910000      -1.04060000
H       -0.63380000       2.03880000       0.71170000
H        0.67040000      -0.35920000      -0.71160000
H        0.50570000      -0.19090000       1.02930000
H       -1.98310000      -0.16260000       0.80100000
H       -2.86100000       0.16170000      -1.51880000
H       -1.46760000      -0.72700000      -2.18450000
H       -3.61300000      -1.91580000      -0.32880000
H       -3.49920000      -2.88610000      -2.42850000
H       -0.02750000      -2.63930000      -1.41880000
H        0.52820000      -2.86230000       0.25590000
H       -0.61040000      -4.01030000      -0.48890000
H       -1.87790000      -3.50180000       1.45110000
