17
Properties=species:S:1:pos:R:3 gdb_80729=T pbc="F F F"
O       -0.12300000       1.21640000      -0.51250000
C       -0.48690000      -0.12450000      -0.39880000
C       -0.39240000      -0.84910000       0.89310000
O       -0.67380000       0.07960000       1.95460000
C       -2.06870000       0.16760000       1.51920000
C       -2.60060000       1.60160000       1.43520000
C       -4.01770000       1.61300000       1.09690000
C       -5.18550000       1.58180000       0.81450000
C       -1.76550000      -0.62990000       0.25700000
H        0.15160000       1.49270000       0.37230000
H       -0.21080000      -0.69910000      -1.27910000
H        0.19460000      -1.72710000       1.13810000
H       -2.68340000      -0.41220000       2.21730000
H       -2.44130000       2.08640000       2.40730000
H       -2.02980000       2.15970000       0.68770000
H       -6.21740000       1.57500000       0.56440000
H       -2.44120000      -1.32250000      -0.22570000
