20
Properties=species:S:1:pos:R:3 gdb_111649=T pbc="F F F"
C        0.31870000       1.40000000      -0.20590000
C       -0.21390000       0.00570000       0.14810000
C        0.57700000      -0.64070000       1.26900000
C        0.75240000      -2.12150000       1.47120000
C        0.47380000      -3.05960000       0.29580000
N        1.42370000      -2.62730000      -0.71430000
C        2.32840000      -1.67210000      -0.31680000
O        3.24920000      -1.24910000      -0.98300000
C        1.94910000      -1.27250000       1.08610000
H        1.35200000       1.33950000      -0.56120000
H       -0.28470000       1.86520000      -0.99140000
H        0.30170000       2.06370000       0.66570000
H       -1.26470000       0.07560000       0.45800000
H       -0.19800000      -0.62510000      -0.74590000
H        0.50550000      -0.09080000       2.20580000
H        0.64530000      -2.53150000       2.46800000
H        0.64690000      -4.10340000       0.58940000
H       -0.56060000      -2.98330000      -0.06450000
H        1.47100000      -3.01920000      -1.64080000
H        2.75710000      -1.01470000       1.75810000
