21
Properties=species:S:1:pos:R:3 gdb_33494=T pbc="F F F"
C        0.35790000      -1.24520000       0.04530000
C        0.18110000      -0.05500000       0.01600000
C       -0.04320000       1.36620000      -0.04110000
C       -1.13110000       1.81340000      -1.01850000
C       -2.50490000       1.25950000      -0.70150000
C       -3.44430000       1.99480000       0.22100000
C       -3.73800000       1.92190000      -1.25830000
C        0.15650000       2.15660000       1.24430000
C        1.17140000       2.26520000       0.14350000
H        0.51820000      -2.29410000       0.07650000
H       -1.16930000       2.91000000      -1.02020000
H       -0.83630000       1.50930000      -2.03130000
H       -2.53500000       0.17540000      -0.63930000
H       -4.06130000       1.41730000       0.90050000
H       -3.12180000       2.95010000       0.62270000
H       -3.60760000       2.82650000      -1.84410000
H       -4.55610000       1.29400000      -1.59370000
H       -0.51190000       2.99310000       1.41500000
H        0.42440000       1.60350000       2.13640000
H        2.13250000       1.78470000       0.28200000
H        1.20050000       3.17560000      -0.44580000
