15
Properties=species:S:1:pos:R:3 gdb_47760=T pbc="F F F"
N       -0.08340000       1.28170000       0.16280000
C       -0.00090000       0.03530000      -0.00530000
O        1.17650000      -0.64260000      -0.10850000
C        1.20480000      -1.78470000      -0.97860000
O        0.12890000      -2.64090000      -0.79940000
C       -1.09570000      -1.97400000      -1.04150000
C       -1.25920000      -0.83320000      -0.01390000
C       -1.49650000      -1.38010000       1.32580000
N       -1.70050000      -1.82050000       2.37390000
H        0.84700000       1.70510000       0.15920000
H        1.24400000      -1.41460000      -2.01620000
H        2.11420000      -2.32920000      -0.72580000
H       -1.11420000      -1.55050000      -2.05750000
H       -1.89250000      -2.71260000      -0.94690000
H       -2.09970000      -0.18720000      -0.28010000
