17
Properties=species:S:1:pos:R:3 gdb_128127=T pbc="F F F"
C        0.24010000       1.18410000      -0.18540000
N       -0.46340000      -0.01430000       0.29880000
C        0.22030000      -0.76350000       1.25580000
C        0.70600000      -2.03140000       1.19020000
N        0.59180000      -2.99220000       0.17220000
C        1.30100000      -2.23050000       2.47370000
N        1.98720000      -3.37060000       2.86520000
N        1.18310000      -1.17160000       3.24400000
O        0.48970000      -0.22770000       2.47860000
H        1.18990000       0.88030000      -0.63400000
H       -0.36750000       1.66000000      -0.96000000
H        0.45130000       1.91910000       0.60250000
H       -1.39340000       0.23210000       0.62310000
H        0.10600000      -2.59710000      -0.62620000
H        1.49950000      -3.32840000      -0.13440000
H        1.53240000      -4.22060000       2.55510000
H        2.16600000      -3.39130000       3.86130000
