18
Properties=species:S:1:pos:R:3 gdb_26690=T pbc="F F F"
C       -0.02840000       1.51520000       0.09970000
C        0.00760000       0.02900000      -0.00200000
C       -0.00720000      -0.78920000      -1.11100000
O       -0.11620000      -0.42930000      -2.44240000
C        0.02220000      -2.14180000      -0.67120000
O        0.01030000      -3.23880000      -1.48430000
C        0.06510000      -2.14370000       0.70260000
C        0.10870000      -3.27360000       1.67300000
N        0.06270000      -0.81000000       1.08660000
H        0.89790000       1.93610000       0.51280000
H       -0.17110000       1.93870000      -0.89770000
H       -0.85550000       1.86760000       0.72870000
H        0.75080000      -0.16260000      -2.76610000
H       -0.14790000      -2.90940000      -2.37730000
H        1.03350000      -3.28760000       2.26530000
H       -0.73130000      -3.25090000       2.37980000
H        0.05400000      -4.21780000       1.12630000
H        0.08240000      -0.49960000       2.04180000
