23
Properties=species:S:1:pos:R:3 gdb_58560=T pbc="F F F"
C       -0.03130000       1.40280000      -0.37510000
C       -0.05510000      -0.07390000       0.04650000
C        0.78990000      -0.31430000       1.30710000
C       -1.50110000      -0.58890000       0.18730000
C       -2.27960000       0.00420000       1.35450000
O       -2.23530000      -0.36680000      -1.06220000
C       -2.31860000      -1.77380000      -1.34130000
C       -1.67810000      -2.12910000       0.01490000
O       -0.47580000      -2.86360000      -0.00400000
H        0.98990000       1.70670000      -0.62710000
H       -0.66620000       1.56690000      -1.24900000
H       -0.37730000       2.06150000       0.42930000
H        0.39190000      -0.65810000      -0.76560000
H        0.44620000       0.29950000       2.14680000
H        0.76410000      -1.36430000       1.60770000
H        1.83360000      -0.04450000       1.11480000
H       -2.30320000       1.09600000       1.30050000
H       -3.31320000      -0.35300000       1.33270000
H       -1.83520000      -0.28440000       2.31200000
H       -3.35210000      -2.10250000      -1.50710000
H       -1.69940000      -2.07060000      -2.19830000
H       -2.38610000      -2.55110000       0.73920000
H       -0.69040000      -3.79810000      -0.08050000
