19
Properties=species:S:1:pos:R:3 gdb_102039=T pbc="F F F"
C       -0.01080000       1.49270000      -0.70910000
N       -0.17110000       0.04490000      -0.57410000
C        0.98200000      -0.71950000      -1.01870000
C        2.13060000      -0.78040000      -0.00250000
O        2.08750000      -0.23130000       1.06660000
C        0.55980000      -2.13780000      -1.36300000
N        0.73950000      -3.07270000      -0.52410000
O       -0.00310000      -2.18720000      -2.59130000
C       -0.54550000      -3.43070000      -3.01540000
H        0.87470000       1.89950000      -0.19870000
H        0.05080000       1.75280000      -1.77180000
H       -0.89760000       1.98540000      -0.30050000
H       -0.32720000      -0.18060000       0.40410000
H        1.37380000      -0.26140000      -1.93740000
H        3.02060000      -1.36010000      -0.32770000
H        0.39060000      -3.97690000      -0.83850000
H        0.23000000      -4.20350000      -3.08200000
H       -1.33800000      -3.76930000      -2.33780000
H       -0.96570000      -3.25480000      -4.00590000
