22
Properties=species:S:1:pos:R:3 gdb_101770=T pbc="F F F"
C       -0.01630000       1.59780000      -0.13320000
C       -0.01150000       0.06640000      -0.06590000
C       -1.42870000      -0.49640000       0.05670000
O       -1.99650000      -0.00490000       1.26180000
C        0.68090000      -0.56000000      -1.27250000
O        2.05060000      -0.13610000      -1.26130000
C        2.83080000      -0.57210000      -2.27040000
C        4.23060000      -0.03500000      -2.10940000
N        2.36910000      -1.32540000      -3.18330000
H        1.00360000       1.98680000      -0.17610000
H       -0.54800000       1.94410000      -1.02850000
H       -0.51930000       2.01570000       0.74110000
H        0.53580000      -0.24580000       0.83320000
H       -2.02590000      -0.18840000      -0.81810000
H       -1.39310000      -1.59780000       0.05870000
H       -2.90880000      -0.30400000       1.30800000
H        0.64670000      -1.65490000      -1.24150000
H        0.21660000      -0.24840000      -2.21590000
H        4.87890000      -0.38300000      -2.91510000
H        4.21650000       1.05920000      -2.10770000
H        4.64830000      -0.35360000      -1.14950000
H        3.09630000      -1.55330000      -3.85730000
