21
Properties=species:S:1:pos:R:3 gdb_119172=T pbc="F F F"
C       -0.42480000       1.35610000      -0.85310000
O       -0.58900000      -0.04070000      -0.78800000
C       -0.77920000      -0.51040000       0.52960000
C       -1.04190000      -2.00130000       0.46690000
C        0.09410000      -2.92350000       0.60320000
O       -0.79230000      -2.67720000       1.70440000
C       -2.28660000      -2.40540000      -0.26670000
C       -2.93420000      -3.73690000      -0.00620000
C       -3.59760000      -2.47250000       0.48100000
H       -0.28900000       1.62120000      -1.90430000
H       -1.30540000       1.88930000      -0.46130000
H        0.45780000       1.69020000      -0.28510000
H        0.10630000      -0.31680000       1.15550000
H       -1.63830000      -0.00370000       1.00100000
H        0.02430000      -3.91880000       0.16940000
H        1.10230000      -2.53040000       0.72340000
H       -2.32370000      -2.01820000      -1.27960000
H       -3.37200000      -4.26540000      -0.84540000
H       -2.48080000      -4.36930000       0.74850000
H       -3.57260000      -2.28700000       1.54940000
H       -4.49410000      -2.12470000      -0.01970000
