21
Properties=species:S:1:pos:R:3 gdb_118088=T pbc="F F F"
C        0.11780000       1.53910000      -0.20540000
C        0.00240000       0.03850000      -0.07090000
C        1.15080000      -0.81240000      -0.40940000
O        0.81250000      -0.55100000       0.96580000
C       -1.40090000      -0.58050000      -0.13550000
O       -1.33010000      -1.96810000       0.15580000
C       -2.39910000       0.12860000       0.79110000
C       -3.77110000      -0.53360000       0.77980000
O       -4.62760000       0.24140000       1.60790000
H        1.16730000       1.84250000      -0.21530000
H       -0.34850000       1.87920000      -1.13680000
H       -0.37570000       2.05090000       0.62520000
H        0.98460000      -1.83550000      -0.73470000
H        2.07540000      -0.34780000      -0.74750000
H       -1.76020000      -0.50900000      -1.17140000
H       -0.74400000      -2.03620000       0.92370000
H       -2.01150000       0.13460000       1.81770000
H       -2.52080000       1.17420000       0.48800000
H       -4.15140000      -0.57790000      -0.25500000
H       -3.68370000      -1.56720000       1.13840000
H       -5.47060000      -0.21600000       1.67480000
