19
Properties=species:S:1:pos:R:3 gdb_11356=T pbc="F F F"
C        0.32160000       0.96620000       0.68650000
C       -0.37040000       0.35270000      -0.54140000
C        0.59700000      -0.24710000      -1.51080000
N        0.77380000       0.10220000      -2.71920000
C        1.82450000      -0.77000000      -3.27370000
C        2.96890000       0.04480000      -3.87440000
C        2.24630000      -1.65960000      -2.07060000
O        1.35020000      -1.27080000      -1.00990000
H        0.90640000       0.21340000       1.22080000
H        0.99650000       1.77510000       0.39050000
H       -0.42040000       1.37910000       1.37540000
H       -1.06090000      -0.43430000      -0.21450000
H       -0.95140000       1.10320000      -1.08100000
H        1.37650000      -1.38100000      -4.06770000
H        3.43850000       0.67120000      -3.10870000
H        3.73510000      -0.61250000      -4.29980000
H        2.59540000       0.69870000      -4.66650000
H        2.12650000      -2.73160000      -2.24800000
H        3.27420000      -1.46760000      -1.74250000
