19
Properties=species:S:1:pos:R:3 gdb_79245=T pbc="F F F"
C        0.03940000       1.56760000      -0.00560000
C        0.05830000       0.04680000      -0.02010000
C        0.78210000      -0.71140000      -1.13430000
C        2.25650000      -0.82190000      -0.63260000
O        2.33790000      -0.13850000       0.61250000
C        1.03200000      -0.70270000       0.94880000
C        0.79420000      -0.86910000       2.41670000
C        1.22730000      -1.80790000      -0.19920000
O        1.03880000      -3.15990000      -0.29240000
H        1.05730000       1.96200000      -0.04890000
H       -0.52010000       1.95890000      -0.86220000
H       -0.43980000       1.95040000       0.90280000
H       -0.94740000      -0.37050000       0.10290000
H        0.53570000      -0.79100000      -2.18580000
H        3.12370000      -0.86840000      -1.27760000
H        0.80440000       0.10520000       2.91770000
H       -0.17860000      -1.33680000       2.59550000
H        1.57030000      -1.49120000       2.87240000
H        1.75470000      -3.60200000       0.17910000
