20
Properties=species:S:1:pos:R:3 gdb_116683=T pbc="F F F"
C        1.71000000      -2.73690000      -2.47680000
O        1.51690000      -1.92820000      -1.32120000
C        1.53720000      -2.57980000      -0.14430000
N        1.38080000      -1.94700000       0.93250000
C        1.42220000      -2.62580000       2.19990000
C        2.42520000      -1.93330000       3.10910000
O        2.13850000      -0.55750000       3.24230000
C        0.12780000      -3.09010000       2.80920000
C        1.17170000      -4.10510000       2.38520000
H        0.92730000      -3.49960000      -2.56800000
H        1.65470000      -2.06460000      -3.33340000
H        2.69210000      -3.22440000      -2.46590000
H        1.69500000      -3.66370000      -0.22350000
H        2.39080000      -2.37370000       4.11140000
H        3.44080000      -2.09420000       2.70820000
H        1.91490000      -0.25610000       2.35170000
H       -0.03320000      -2.90990000       3.86650000
H       -0.76320000      -3.01200000       2.19570000
H        0.94400000      -4.72280000       1.52390000
H        1.73610000      -4.62310000       3.15400000
