16
Properties=species:S:1:pos:R:3 gdb_13928=T pbc="F F F"
O        0.47850000       0.09690000      -0.42670000
C        0.23890000       1.20920000      -0.07900000
O       -0.95310000       1.70830000       0.38790000
C       -0.37720000       3.04650000       0.55810000
C        0.97610000       2.54170000       0.04320000
C        2.31640000       2.56030000       0.82420000
C        3.05970000       2.61160000      -0.53790000
C        1.73380000       3.06820000      -1.20410000
H       -0.89540000       3.77270000      -0.07310000
H       -0.41330000       3.35140000       1.60680000
H        2.42430000       3.49190000       1.38780000
H        2.51600000       1.71660000       1.48810000
H        3.92020000       3.27800000      -0.61820000
H        3.34940000       1.61280000      -0.87120000
H        1.46560000       2.63220000      -2.16860000
H        1.66030000       4.15780000      -1.27160000
