12
Properties=species:S:1:pos:R:3 gdb_129527=T pbc="F F F"
N       -0.16230000       1.38850000       0.01170000
C        0.14610000       0.04350000       0.03360000
O        1.25900000      -0.40260000       0.15490000
N       -1.00130000      -0.76280000      -0.05370000
C       -1.00740000      -2.13220000      -0.03600000
N       -0.00310000      -2.96200000      -0.12390000
O       -0.61840000      -4.18840000      -0.07420000
N       -1.97280000      -4.02440000       0.04000000
N       -2.22350000      -2.78980000       0.06450000
H        0.64940000       1.97960000      -0.08090000
H       -0.97500000       1.70270000      -0.49580000
H       -1.91320000      -0.34790000       0.06350000
