18
Properties=species:S:1:pos:R:3 gdb_11972=T pbc="F F F"
C       -0.16430000       1.51970000       0.03410000
C       -0.01480000       0.00520000      -0.00480000
O       -1.23930000      -0.64030000      -0.27710000
C        1.22960000      -0.50510000      -0.78540000
O        1.90890000      -0.82790000       0.45000000
C        0.71030000      -0.60810000       1.19410000
C        0.71100000      -0.25070000       2.63990000
C        0.17650000      -1.59940000       2.17080000
H        0.78370000       1.99770000       0.29480000
H       -0.47660000       1.90440000      -0.94530000
H       -0.91530000       1.81240000       0.77460000
H       -1.72470000      -0.11280000      -0.91960000
H        1.01330000      -1.39860000      -1.38290000
H        1.79010000       0.22450000      -1.38020000
H        1.67330000      -0.24080000       3.14080000
H        0.00690000       0.49530000       2.99510000
H       -0.89470000      -1.76790000       2.18200000
H        0.78720000      -2.47370000       2.36820000
