22
Properties=species:S:1:pos:R:3 gdb_107047=T pbc="F F F"
C       -0.01710000       1.54240000       0.04870000
C        0.07750000       0.02170000       0.02470000
C        0.73240000      -0.57540000      -1.24530000
C        1.32660000      -1.91120000      -0.75850000
C        1.59310000      -1.67710000       0.72650000
C        1.66940000      -2.87460000       1.64340000
O        2.74450000      -3.74110000       1.30450000
C        2.28460000      -0.40400000       1.08020000
N        0.81980000      -0.51190000       1.19300000
H        0.97450000       2.00130000      -0.03020000
H       -0.62120000       1.90330000      -0.78990000
H       -0.47820000       1.88830000       0.97800000
H       -0.93440000      -0.39250000       0.12240000
H        0.01110000      -0.70360000      -2.05650000
H        1.51580000       0.08980000      -1.62410000
H        0.59880000      -2.72490000      -0.86100000
H        2.22070000      -2.21330000      -1.31010000
H        1.72760000      -2.53400000       2.68760000
H        0.76150000      -3.48070000       1.54530000
H        3.55830000      -3.23160000       1.38000000
H        2.79780000      -0.31130000       2.03430000
H        2.71660000       0.19610000       0.28350000
