21
Properties=species:S:1:pos:R:3 gdb_110259=T pbc="F F F"
C       -0.09100000       1.59410000       0.45660000
C        0.02380000       0.06480000       0.45110000
C       -1.32080000      -0.60350000       0.17660000
C       -1.99950000      -0.68280000      -1.24100000
C       -1.07690000      -1.87350000      -1.59530000
O        0.24930000      -1.57630000      -1.95260000
C       -1.49980000      -2.13420000      -0.11070000
C       -2.93520000      -1.78470000      -0.63150000
O       -3.98960000      -1.47760000       0.22880000
H        0.86720000       2.06060000       0.70530000
H       -0.39890000       1.97090000      -0.52470000
H       -0.82860000       1.94050000       1.19030000
H        0.77140000      -0.24970000      -0.27490000
H        0.36970000      -0.27270000       1.43810000
H       -2.00820000      -0.23330000       0.95140000
H       -2.28730000       0.13970000      -1.89720000
H       -1.50830000      -2.58470000      -2.31450000
H        0.73780000      -2.40460000      -1.98870000
H       -1.21340000      -2.97260000       0.52780000
H       -3.34950000      -2.48970000      -1.35650000
H       -3.69140000      -0.84910000       0.89410000
