13
Properties=species:S:1:pos:R:3 gdb_129328=T pbc="F F F"
N       -0.04060000       1.32730000       0.27560000
C        0.04640000       0.07740000       0.12210000
O        1.13960000      -0.73800000       0.06630000
N        0.67210000      -2.08320000      -0.11910000
N       -0.57200000      -2.05760000      -0.16670000
N       -1.02030000      -0.79980000      -0.01920000
C       -2.42920000      -0.44380000      -0.08670000
C       -2.97450000      -0.48430000      -1.43960000
C       -3.43530000      -0.52340000      -2.54690000
H        0.87280000       1.76190000       0.36940000
H       -2.98650000      -1.11350000       0.57580000
H       -2.48480000       0.56900000       0.32510000
H       -3.83970000      -0.55500000      -3.52880000
