19
Properties=species:S:1:pos:R:3 gdb_45144=T pbc="F F F"
O        0.41020000       0.17130000      -0.67810000
C        0.20880000       1.24580000      -0.18950000
C       -0.99640000       1.87930000       0.53730000
C       -0.19310000       3.20660000       0.65310000
C        0.64510000       3.35190000       1.95040000
C        1.79370000       2.58800000       1.27170000
C        3.26580000       2.82550000       1.44090000
C        2.65950000       1.50620000       1.85360000
C        1.03640000       2.52850000      -0.07480000
H       -1.86740000       1.94320000      -0.12370000
H       -1.30820000       1.39650000       1.46840000
H       -0.68150000       4.09790000       0.26330000
H        0.90180000       4.39050000       2.17990000
H        0.21340000       2.89630000       2.84760000
H        3.88480000       2.84930000       0.54970000
H        3.57780000       3.51430000       2.22020000
H        2.56210000       1.29710000       2.91420000
H        2.85890000       0.63320000       1.24070000
H        1.54660000       2.90660000      -0.96210000
