18
Properties=species:S:1:pos:R:3 gdb_16447=T pbc="F F F"
C       -0.09580000       1.53090000       0.06420000
C        0.15690000       0.05990000       0.00450000
O       -0.75910000      -0.80810000       0.69070000
C        0.64060000      -0.92880000       0.99140000
C        1.29270000      -1.79540000      -0.11080000
C        0.40200000      -2.89700000      -0.75890000
C       -0.11480000      -1.86220000      -1.80900000
C        0.77640000      -0.76050000      -1.16350000
H        0.79710000       2.09110000      -0.23170000
H       -0.90890000       1.81310000      -0.61500000
H       -0.37980000       1.82950000       1.07700000
H        0.91880000      -0.82630000       2.03580000
H        2.35710000      -1.98920000       0.02330000
H        0.98120000      -3.71340000      -1.19690000
H       -0.36250000      -3.31650000      -0.10280000
H        0.17320000      -2.09930000      -2.83600000
H       -1.18770000      -1.66440000      -1.77780000
H        1.46690000      -0.20420000      -1.79850000
