19
Properties=species:S:1:pos:R:3 gdb_35791=T pbc="F F F"
N        0.10940000      -1.18930000       0.09980000
C        0.04810000      -0.03520000       0.07190000
C       -0.02280000       1.42630000       0.04510000
C       -0.77220000       1.98070000       1.27790000
C       -1.02350000       3.48420000       1.10250000
C        0.24150000       4.24330000       0.75940000
N        1.41840000       3.94650000       1.58770000
C        1.41430000       3.53630000       0.16930000
C        1.39700000       2.03570000      -0.08670000
H       -0.60130000       1.70030000      -0.84790000
H       -1.72160000       1.45320000       1.40400000
H       -0.17240000       1.80100000       2.17470000
H       -1.75460000       3.64200000       0.29820000
H       -1.46570000       3.89670000       2.01680000
H        0.08900000       5.27820000       0.45820000
H        1.98450000       4.78050000       1.71560000
H        2.04150000       4.10990000      -0.50890000
H        2.06590000       1.54650000       0.62820000
H        1.78390000       1.82180000      -1.08750000
