18
Properties=species:S:1:pos:R:3 gdb_66057=T pbc="F F F"
C       -0.16920000       1.70160000       0.26880000
C       -0.12140000       0.18570000       0.08480000
C        0.95280000      -0.32580000      -0.91080000
C        1.87730000      -0.70200000       0.27360000
C        0.65760000      -0.58520000       1.24130000
C        0.84270000       0.08700000       2.51350000
N        0.99380000       0.64560000       3.51500000
C       -1.51770000      -0.36920000      -0.10100000
O       -1.83670000      -1.15710000      -0.95360000
H        0.82280000       2.10500000       0.49020000
H       -0.53300000       2.18120000      -0.64570000
H       -0.83110000       1.98390000       1.09390000
H        0.58660000      -1.19230000      -1.46470000
H        1.33680000       0.41250000      -1.61680000
H        2.36210000      -1.67870000       0.24850000
H        2.62990000       0.05950000       0.48530000
H        0.20690000      -1.56590000       1.41880000
H       -2.25680000      -0.00350000       0.64910000
