20
Properties=species:S:1:pos:R:3 gdb_16694=T pbc="F F F"
C       -0.20390000       1.51480000       0.00170000
C        0.02270000       0.00800000       0.00750000
C        1.21050000      -0.59170000      -0.84440000
C        2.14600000      -0.19610000       0.34730000
C        0.88500000      -0.62750000       1.16890000
C        0.79970000      -2.11480000       0.77750000
C        0.52480000      -3.24140000       1.71170000
C        1.01490000      -2.08290000      -0.54410000
H        0.70810000       2.09450000       0.16700000
H       -0.62840000       1.83220000      -0.95760000
H       -0.91980000       1.79540000       0.78280000
H       -0.93070000      -0.50410000      -0.15730000
H        1.40520000      -0.28180000      -1.87180000
H        3.05220000      -0.79100000       0.48230000
H        2.38010000       0.86970000       0.40720000
H        0.74370000      -0.35720000       2.21700000
H       -0.44100000      -3.11660000       2.21890000
H        0.50760000      -4.20050000       1.18540000
H        1.28330000      -3.30310000       2.50310000
H        1.03790000      -2.89490000      -1.25810000
