17
Properties=species:S:1:pos:R:3 gdb_8686=T pbc="F F F"
C       -0.00280000       1.57800000       0.09580000
C       -0.04770000       0.05100000       0.00320000
C        0.69110000      -0.51360000      -1.21760000
O        2.03960000      -0.09800000      -1.16270000
C        0.64620000      -2.05870000      -1.25850000
O        1.49110000      -2.54620000      -2.28680000
C        0.06940000      -0.02720000      -2.48320000
N       -0.39770000       0.28760000      -3.49310000
H        1.03010000       1.93180000       0.12930000
H       -0.49460000       2.04180000      -0.76470000
H       -0.51420000       1.91880000       1.00020000
H        0.42520000      -0.39400000       0.88570000
H       -1.08520000      -0.30150000      -0.02550000
H        2.52430000      -0.69820000      -1.74860000
H        1.05970000      -2.43180000      -0.31730000
H       -0.38590000      -2.41650000      -1.36220000
H        1.05600000      -2.38840000      -3.13350000
