15
Properties=species:S:1:pos:R:3 gdb_2657=T pbc="F F F"
C       -0.53690000       1.33160000      -0.24690000
C        0.45220000       0.23110000       0.17830000
C        1.14140000      -0.38710000      -0.94980000
C        1.69490000      -0.88460000      -1.89530000
C        2.37810000      -1.49290000      -3.03890000
C        1.75290000      -2.73180000      -3.50760000
C        1.24970000      -3.74830000      -3.90120000
H       -0.02000000       2.13370000      -0.78070000
H       -1.30600000       0.92670000      -0.91010000
H       -1.02880000       1.76210000       0.63040000
H        1.19270000       0.65090000       0.87120000
H       -0.08190000      -0.54370000       0.74310000
H        2.41790000      -0.77430000      -3.86960000
H        3.42600000      -1.69590000      -2.77720000
H        0.80070000      -4.64690000      -4.24490000
