16
Properties=species:S:1:pos:R:3 gdb_23109=T pbc="F F F"
O       -0.27330000       1.43750000      -0.07980000
N       -0.03240000       0.05640000      -0.01140000
C       -1.12170000      -0.59910000       0.01330000
C       -2.54410000      -0.07860000      -0.01030000
C       -3.35450000      -1.34970000       0.05520000
C       -2.59770000      -2.44510000       0.09740000
C       -1.12420000      -2.12190000       0.06250000
C       -0.36440000      -2.73080000      -1.11810000
O       -0.79920000      -3.59490000      -1.83100000
H        0.61820000       1.80260000      -0.07880000
H       -2.72500000       0.60110000       0.83290000
H       -2.73650000       0.51530000      -0.91380000
H       -4.43820000      -1.34280000       0.06090000
H       -2.95660000      -3.46520000       0.12730000
H       -0.58910000      -2.47210000       0.95980000
H        0.64970000      -2.29980000      -1.26090000
