19
Properties=species:S:1:pos:R:3 gdb_114716=T pbc="F F F"
C        0.16480000       1.59970000      -0.00720000
C       -0.02170000       0.08630000       0.13810000
N        0.70160000      -0.48380000       1.25810000
C        2.14650000      -0.66770000       1.25540000
C        2.44450000      -1.19140000       2.65230000
N        2.05720000      -0.23170000       3.69820000
C        1.15060000      -1.36070000       3.35190000
C        0.06700000      -0.92490000       2.39420000
O       -1.13330000      -0.96510000       2.57360000
H        1.21210000       1.86540000      -0.18300000
H       -0.41930000       1.97070000      -0.85520000
H       -0.17110000       2.11640000       0.89610000
H       -1.07460000      -0.15140000       0.31140000
H        0.29020000      -0.42350000      -0.78360000
H        2.44650000      -1.39420000       0.48630000
H        2.67410000       0.27380000       1.06100000
H        3.28680000      -1.85480000       2.80810000
H        2.54280000      -0.46970000       4.56130000
H        0.93240000      -2.13120000       4.08010000
