17
Properties=species:S:1:pos:R:3 gdb_133829=T pbc="F F F"
C        1.28900000       0.15220000       0.57100000
C        2.59830000      -0.16180000      -0.08940000
C        3.91690000       0.41320000       0.30030000
C        3.31290000       0.59150000      -1.18950000
C        5.13030000      -0.26150000      -1.27440000
C        3.82820000      -0.71590000      -1.81940000
C        3.11230000      -1.52420000      -0.65800000
O        4.16210000      -1.92980000       0.19430000
C        4.93380000      -0.71950000       0.15770000
H        1.21380000       1.21720000       0.81460000
H        1.18310000      -0.41320000       1.50290000
H        0.44560000      -0.10190000      -0.07950000
H        4.04030000       1.30370000       0.89770000
H        3.15570000       1.56180000      -1.63370000
H        3.67730000      -0.90340000      -2.87530000
H        2.41280000      -2.33070000      -0.86170000
H        5.77830000      -0.76760000       0.83550000
