21
Properties=species:S:1:pos:R:3 gdb_70086=T pbc="F F F"
C       -0.13780000       1.57970000       0.02790000
C       -0.02150000       0.04550000      -0.00960000
C       -1.43140000      -0.57500000      -0.09480000
C        0.82910000      -0.45130000      -1.17000000
C        1.80180000      -1.28170000      -0.78750000
C        1.85000000      -1.41880000       0.69580000
C        2.17900000      -0.12390000       1.43630000
C        0.74490000      -0.52680000       1.20890000
O        0.00430000      -0.94290000       2.31960000
H        0.84330000       2.06020000       0.07250000
H       -0.65580000       1.95570000      -0.86100000
H       -0.71480000       1.90270000       0.90280000
H       -1.92270000      -0.26830000      -1.02430000
H       -1.38080000      -1.66670000      -0.07750000
H       -2.05550000      -0.25440000       0.74430000
H        0.61890000      -0.15420000      -2.19240000
H        2.50760000      -1.77190000      -1.44860000
H        2.08750000      -2.36250000       1.17310000
H        2.52740000      -0.22860000       2.45910000
H        2.62620000       0.68730000       0.87180000
H       -0.16340000      -0.17100000       2.87110000
