18
Properties=species:S:1:pos:R:3 gdb_33515=T pbc="F F F"
N       -0.50230000      -1.04310000       0.46360000
C       -0.33230000       0.08880000       0.29470000
C       -0.11620000       1.50390000       0.08110000
C       -1.20990000       2.23700000      -0.67740000
N       -1.41230000       1.66310000      -1.99780000
C       -2.46560000       0.65490000      -2.12040000
C       -2.65890000       2.02530000      -2.66540000
C        0.68810000       2.20790000       1.13010000
N        1.26590000       1.94920000      -0.18850000
H       -2.13180000       2.24120000      -0.06710000
H       -0.87810000       3.27330000      -0.79630000
H       -2.24120000      -0.17830000      -2.77850000
H       -3.02590000       0.38900000      -1.22600000
H       -3.35160000       2.67700000      -2.13470000
H       -2.58130000       2.21630000      -3.73160000
H        0.46250000       3.25050000       1.33690000
H        1.02220000       1.62830000       1.98520000
H        1.90810000       1.16130000      -0.15470000
