16
Properties=species:S:1:pos:R:3 gdb_61122=T pbc="F F F"
C       -0.38370000       1.60220000      -0.12440000
C       -0.08280000       0.09240000      -0.01840000
C        0.80460000      -0.27570000       1.18770000
C        0.18240000       0.06860000       2.46370000
N       -0.33160000       0.34640000       3.46080000
C       -1.40090000      -0.69680000      -0.00180000
O       -2.33170000      -0.43080000      -0.71400000
C        0.63350000      -0.32810000      -1.31210000
O        1.71750000      -0.84400000      -1.34400000
H        0.53650000       2.17220000      -0.28280000
H       -1.06790000       1.78730000      -0.95450000
H       -0.85750000       1.95630000       0.79490000
H        1.03030000      -1.34720000       1.17480000
H        1.76830000       0.23500000       1.10330000
H       -1.42430000      -1.56660000       0.68940000
H        0.05520000      -0.09980000      -2.23100000
