21
Properties=species:S:1:pos:R:3 gdb_86979=T pbc="F F F"
C       -0.34080000       1.40400000      -0.01730000
C        0.00600000      -0.07940000       0.07890000
C        1.13060000      -0.54320000      -0.89590000
C        2.14330000      -0.46900000       0.27020000
C        0.93950000      -0.44680000       1.27190000
N        3.15390000      -1.50710000       0.31060000
C        4.01190000      -1.43010000       1.48810000
C        5.00630000      -2.50690000       1.48910000
N        5.77480000      -3.36890000       1.50450000
H        0.55570000       2.03300000       0.03020000
H       -0.85140000       1.62850000      -0.96000000
H       -1.00090000       1.70750000       0.80250000
H       -0.91210000      -0.67040000       0.02370000
H        0.98630000      -1.57670000      -1.22740000
H        1.33060000       0.07520000      -1.77460000
H        2.66370000       0.49550000       0.27820000
H        0.97830000       0.25620000       2.10900000
H        0.73150000      -1.44840000       1.66370000
H        2.71560000      -2.42250000       0.26910000
H        4.54360000      -0.47020000       1.47170000
H        3.47140000      -1.47040000       2.45090000
