17
Properties=species:S:1:pos:R:3 gdb_75864=T pbc="F F F"
C       -0.09670000       1.61270000      -0.04060000
C        0.00890000       0.07940000       0.01900000
C        0.80990000      -0.48790000      -1.17010000
O        0.59710000      -0.25800000      -2.33010000
C        1.94720000      -1.37540000      -0.62620000
C        1.78930000      -1.25780000       0.85870000
C        0.74980000      -0.48230000       1.21060000
C        0.36260000      -0.24960000       2.60610000
O       -0.59520000       0.40560000       2.95330000
H        0.89230000       2.07710000       0.02960000
H       -0.54690000       1.91040000      -0.99080000
H       -0.70960000       1.97890000       0.78450000
H       -1.00850000      -0.33280000      -0.02840000
H        1.83780000      -2.40470000      -0.99250000
H        2.91930000      -1.02620000      -0.99670000
H        2.44090000      -1.75920000       1.56740000
H        1.02610000      -0.74040000       3.35340000
