18
Properties=species:S:1:pos:R:3 gdb_26291=T pbc="F F F"
C       -0.03370000       1.42900000       0.04080000
N       -0.00270000      -0.02010000      -0.00560000
C       -0.13640000      -0.73570000       1.25360000
C        0.01490000      -0.67360000      -1.20300000
N        0.01310000      -2.02070000      -1.19030000
C        0.04780000      -2.63990000      -2.36450000
N        0.08210000      -2.09750000      -3.58070000
C        0.07530000      -0.75550000      -3.58230000
C        0.04020000       0.01500000      -2.43830000
H        0.80210000       1.86720000      -0.51660000
H       -0.96900000       1.84140000      -0.36270000
H        0.05490000       1.74740000       1.08060000
H       -1.10560000      -0.52700000       1.72610000
H       -0.05930000      -1.80300000       1.05940000
H        0.65630000      -0.43420000       1.94820000
H        0.04700000      -3.72790000      -2.32210000
H        0.09640000      -0.27530000      -4.55870000
H        0.02630000       1.09390000      -2.50320000
