20
Properties=species:S:1:pos:R:3 gdb_13980=T pbc="F F F"
C        0.08880000       1.52530000      -0.02060000
C        0.19120000       0.01160000       0.04580000
O        0.44260000      -0.47590000      -1.26850000
C        0.57920000      -1.84460000      -1.33900000
C        1.84280000      -2.54640000      -0.91870000
C        1.37700000      -2.63870000      -2.35780000
C        0.24290000      -3.66670000      -2.46100000
C       -0.59410000      -2.83150000      -1.43270000
H        1.01850000       1.95600000      -0.40340000
H       -0.72620000       1.82700000      -0.68470000
H       -0.10250000       1.93850000       0.97440000
H        1.00450000      -0.29880000       0.71900000
H       -0.74150000      -0.42230000       0.43810000
H        2.68450000      -1.87910000      -0.76260000
H        1.82870000      -3.42310000      -0.27340000
H        1.99360000      -2.28460000      -3.17460000
H       -0.22540000      -3.70280000      -3.44670000
H        0.50250000      -4.68630000      -2.15800000
H       -0.89960000      -3.33090000      -0.50750000
H       -1.47060000      -2.37470000      -1.89830000
