16
Properties=species:S:1:pos:R:3 gdb_37116=T pbc="F F F"
C       -0.04380000       1.59750000       0.03400000
C        1.41960000       2.02060000       0.14530000
C        2.27850000       1.00500000      -0.01610000
C        1.52110000      -0.26250000      -0.18030000
O        0.68940000      -0.62030000       0.94170000
C        0.07470000       0.09400000      -0.12720000
C       -0.20460000      -0.87670000      -1.26370000
N        0.63530000      -0.43340000      -2.40500000
C        1.24940000      -1.23550000      -1.31430000
H       -0.62820000       1.89280000       0.91280000
H       -0.52270000       2.04560000      -0.84410000
H        1.70420000       3.04200000       0.37780000
H        3.35810000       1.07800000       0.01160000
H       -1.06750000      -1.51410000      -1.41230000
H        0.45130000      -1.07110000      -3.18180000
H        1.70710000      -2.19650000      -1.51200000
