20
Properties=species:S:1:pos:R:3 gdb_111296=T pbc="F F F"
C        0.16960000       1.35080000      -0.07640000
O       -0.24590000       0.02420000       0.19120000
C        0.50860000      -0.59370000       1.18910000
C        0.11830000      -2.02820000       1.49810000
N        0.42860000      -2.82850000       0.28160000
C        1.50820000      -2.52500000       1.25030000
C        2.32170000      -3.58930000       1.91680000
C        1.96430000      -1.11880000       0.80640000
O        2.34560000      -0.98350000      -0.53120000
H        1.20190000       1.38160000      -0.44500000
H       -0.49890000       1.74660000      -0.84480000
H        0.09040000       1.98490000       0.82120000
H        0.54500000       0.01980000       2.10340000
H       -0.62320000      -2.37570000       2.20750000
H        0.11260000      -3.78140000       0.45660000
H        1.68860000      -4.40870000       2.27540000
H        3.05840000      -4.01080000       1.22350000
H        2.86710000      -3.18570000       2.77660000
H        2.75480000      -0.69000000       1.42670000
H        1.65450000      -1.44250000      -1.03120000
