18
Properties=species:S:1:pos:R:3 gdb_117149=T pbc="F F F"
C        0.02050000       1.40000000      -0.00270000
O        0.00780000      -0.00980000       0.02290000
C        0.63360000      -0.57270000      -1.08530000
C        0.56710000      -2.09420000      -0.96460000
O        0.04250000      -2.65210000      -0.03330000
N        1.16620000      -2.79690000      -2.02650000
C        1.80700000      -2.14130000      -3.16460000
C        1.15080000      -4.19420000      -1.99740000
O        1.63740000      -4.88500000      -2.85970000
H        1.04670000       1.79980000      -0.00650000
H       -0.50780000       1.79770000      -0.88350000
H       -0.48960000       1.74050000       0.90050000
H        0.15180000      -0.26190000      -2.03000000
H        1.69090000      -0.26040000      -1.16160000
H        2.64920000      -1.52100000      -2.84550000
H        2.17540000      -2.93390000      -3.81530000
H        1.09670000      -1.52360000      -3.72130000
H        0.64610000      -4.57510000      -1.10140000
