16
Properties=species:S:1:pos:R:3 gdb_32035=T pbc="F F F"
C       -0.10890000       1.44270000       0.00960000
O       -0.04120000       0.01350000       0.00530000
C       -1.17610000      -0.68550000       0.01190000
C       -1.19710000      -2.04130000       0.00860000
C       -2.47900000      -2.66770000       0.01650000
C       -3.62630000      -1.94500000       0.02680000
C       -3.59380000      -0.50570000       0.03020000
N       -4.59960000       0.26780000       0.03960000
O       -2.28820000       0.06130000       0.02200000
H        0.92860000       1.77670000       0.00290000
H       -0.62810000       1.81650000      -0.87700000
H       -0.61490000       1.81170000       0.90580000
H       -0.26940000      -2.59290000       0.00040000
H       -2.52640000      -3.75180000       0.01410000
H       -4.60750000      -2.39900000       0.03290000
H       -4.31500000       1.24620000       0.04000000
