16
Properties=species:S:1:pos:R:3 gdb_67918=T pbc="F F F"
C       -0.06160000       1.55810000       0.08270000
C        0.02880000       0.06730000      -0.03580000
C       -0.76370000      -0.78500000      -1.03180000
C       -1.03880000      -1.70020000       0.17030000
O       -1.68480000      -2.67680000       0.37190000
N       -0.33560000      -0.85830000       1.13720000
C        1.08430000      -0.73990000       0.61980000
C        1.76100000      -1.84170000      -0.00450000
C        2.34400000      -2.75840000      -0.51960000
H        0.46200000       2.04260000      -0.74880000
H       -1.10550000       1.88720000       0.06310000
H        0.38790000       1.90380000       1.01750000
H       -1.67970000      -0.30490000      -1.38590000
H       -0.22390000      -1.21840000      -1.87570000
H        1.68570000      -0.20480000       1.35090000
H        2.85430000      -3.57400000      -0.97010000
