18
Properties=species:S:1:pos:R:3 gdb_14776=T pbc="F F F"
C       -0.58410000       1.42540000      -0.31940000
C       -0.32140000      -0.06940000      -0.27320000
O       -1.54430000      -0.73350000      -0.00330000
C       -1.43450000      -2.13540000       0.03690000
C       -2.83610000      -2.70980000       0.13800000
O       -3.56780000      -2.49040000      -1.06980000
C       -4.24840000      -1.32870000      -1.17890000
O       -4.80170000      -1.00670000      -2.18670000
H        0.34310000       1.96690000      -0.52850000
H       -1.30940000       1.66260000      -1.10270000
H       -0.98260000       1.77610000       0.63680000
H        0.09250000      -0.42250000      -1.23150000
H        0.41740000      -0.31170000       0.50870000
H       -0.94560000      -2.52030000      -0.87230000
H       -0.83970000      -2.46650000       0.90550000
H       -2.79610000      -3.79240000       0.27950000
H       -3.36110000      -2.26250000       0.99110000
H       -4.24640000      -0.74010000      -0.24450000
