12
Properties=species:S:1:pos:R:3 gdb_21295=T pbc="F F F"
C       -0.04190000       1.38460000       0.06110000
O        0.01050000      -0.05230000      -0.01200000
C        0.61930000      -0.53820000      -1.07900000
N        1.15970000       0.13810000      -2.03980000
O        1.66840000      -0.86620000      -2.92380000
C        1.40110000      -2.11570000      -2.43710000
O        1.70320000      -3.14940000      -2.95660000
N        0.72230000      -1.88940000      -1.24360000
H        0.96940000       1.79840000       0.08070000
H       -0.58060000       1.78680000      -0.80040000
H       -0.56970000       1.60850000       0.98680000
H        0.37980000      -2.60890000      -0.63090000
