15
Properties=species:S:1:pos:R:3 gdb_129758=T pbc="F F F"
N        0.07730000       1.42870000       0.05740000
C        0.02440000       0.04560000      -0.04130000
C       -1.04390000      -0.78950000      -0.20240000
O       -0.56270000      -2.04590000      -0.32870000
N        0.84230000      -1.95740000      -0.22250000
N        1.14850000      -0.73690000      -0.06280000
N       -2.39970000      -0.49560000      -0.23570000
C       -3.22190000      -1.08420000      -1.31690000
C       -3.36130000      -1.56610000       0.07920000
H        0.85400000       1.74690000       0.62190000
H       -0.79720000       1.82230000       0.37930000
H       -3.95700000      -0.40800000      -1.74120000
H       -2.71540000      -1.73420000      -2.02370000
H       -2.95810000      -2.54520000       0.31620000
H       -4.20330000      -1.24540000       0.68450000
