20
Properties=species:S:1:pos:R:3 gdb_114489=T pbc="F F F"
C        0.22010000       1.66660000       0.13740000
C        0.10280000       0.13900000       0.10730000
C        0.61950000      -0.48050000      -1.17950000
C        0.38010000      -1.99900000      -1.45270000
C       -0.16470000      -1.60610000      -2.85260000
C       -1.68950000      -1.49940000      -3.07630000
C       -1.53490000      -0.08860000      -2.45780000
O       -2.28280000       0.75140000      -2.04350000
N       -0.11760000      -0.15190000      -2.46470000
H        1.25300000       1.98890000      -0.03410000
H       -0.41350000       2.11210000      -0.63340000
H       -0.09720000       2.06110000       1.10720000
H        0.67920000      -0.30280000       0.93120000
H       -0.94150000      -0.15410000       0.26480000
H        1.67090000      -0.20850000      -1.32330000
H        1.26500000      -2.63820000      -1.44070000
H       -0.38030000      -2.43550000      -0.79720000
H        0.44700000      -1.89750000      -3.70830000
H       -2.01450000      -1.51950000      -4.11960000
H       -2.32580000      -2.16650000      -2.49010000
