25
Properties=species:S:1:pos:R:3 gdb_76205=T pbc="F F F"
C        0.50800000       1.46210000       0.03210000
C       -0.10710000       0.06200000      -0.04020000
C       -1.62650000       0.16370000      -0.16890000
C        0.59360000      -0.87930000      -1.07400000
C        1.29080000      -1.67670000       0.07660000
C        1.06880000      -3.18850000       0.05620000
C        2.78320000      -1.36770000       0.22220000
C        0.38230000      -0.90350000       1.09540000
O        0.93990000      -0.37590000       2.27570000
H        1.60270000       1.44540000       0.06800000
H        0.23030000       2.04540000      -0.85280000
H        0.15160000       2.00150000       0.91620000
H       -1.91410000       0.70970000      -1.07530000
H       -2.08880000      -0.82800000      -0.21820000
H       -2.05910000       0.69080000       0.68960000
H       -0.11390000      -1.48650000      -1.64610000
H        1.26730000      -0.38510000      -1.78060000
H        1.59750000      -3.65780000      -0.78200000
H        1.43220000      -3.65150000       0.98120000
H        0.00580000      -3.43320000      -0.04330000
H        3.00210000      -0.29500000       0.18490000
H        3.17350000      -1.75690000       1.16860000
H        3.34900000      -1.83350000      -0.59230000
H       -0.43960000      -1.54140000       1.43740000
H        1.67390000       0.19820000       2.03560000
