21
Properties=species:S:1:pos:R:3 gdb_53468=T pbc="F F F"
C        0.70250000       0.27890000       1.53600000
C        0.24800000      -0.63640000       0.49860000
C       -0.12260000      -1.38980000      -0.36510000
C       -0.57850000      -2.29370000      -1.41230000
C       -1.69300000      -3.28030000      -1.00860000
O       -2.57680000      -3.53840000      -1.79030000
C       -1.61960000      -3.92720000       0.37380000
C       -2.62070000      -3.20570000       1.30010000
C       -1.92650000      -5.42730000       0.27930000
H        1.79370000       0.37610000       1.53120000
H        0.27950000       1.27970000       1.39650000
H        0.40590000      -0.06960000       2.53140000
H       -0.93630000      -1.74830000      -2.29120000
H        0.26290000      -2.91720000      -1.75340000
H       -0.61150000      -3.77470000       0.77480000
H       -2.58590000      -3.64180000       2.30330000
H       -2.39210000      -2.13970000       1.38230000
H       -3.63860000      -3.31290000       0.91270000
H       -1.17990000      -5.95290000      -0.32450000
H       -1.93490000      -5.87880000       1.27600000
H       -2.90320000      -5.58410000      -0.18530000
