20
Properties=species:S:1:pos:R:3 gdb_10066=T pbc="F F F"
C       -0.47720000       1.09370000       0.52550000
C       -0.19130000      -0.33530000       0.06070000
C        0.54700000      -0.39380000      -1.28110000
C        0.85960000      -1.86350000      -1.66450000
C        1.81140000      -2.03540000      -2.75550000
C        2.61880000      -2.19260000      -3.63300000
O       -0.28740000       0.22690000      -2.24410000
C        0.37220000       0.88210000      -3.30960000
H        0.45260000       1.65190000       0.68380000
H       -1.06790000       1.62730000      -0.22270000
H       -1.03120000       1.09650000       1.46890000
H        0.40680000      -0.86420000       0.81230000
H       -1.13270000      -0.88980000      -0.04250000
H        1.49570000       0.16020000      -1.19820000
H        1.24830000      -2.37940000      -0.77740000
H       -0.09190000      -2.34690000      -1.91780000
H        3.32520000      -2.32920000      -4.41380000
H        1.09240000       1.62740000      -2.93900000
H        0.90220000       0.18230000      -3.96530000
H       -0.39970000       1.39880000      -3.88640000
