12
Properties=species:S:1:pos:R:3 gdb_48000=T pbc="F F F"
O       -0.13880000       0.06490000       0.49020000
C        0.06880000       1.01380000      -0.22760000
C        1.26790000       1.81890000      -0.16930000
C        2.25340000       2.51540000      -0.14300000
C        3.44250000       3.31100000      -0.07830000
O        3.73480000       4.17310000      -1.18580000
C        3.38270000       4.79640000       0.03920000
C        2.11530000       5.49230000       0.08670000
N        1.11730000       6.07050000       0.14910000
H       -0.65830000       1.34170000      -0.99560000
H        4.31810000       2.82820000       0.35300000
H        4.19530000       5.29830000       0.56170000
