18
Properties=species:S:1:pos:R:3 gdb_12279=T pbc="F F F"
C        0.46590000       1.36610000      -0.25290000
C        0.06420000      -0.06520000       0.04610000
O        0.80160000      -1.03910000      -0.74140000
C        1.37080000      -1.66550000       0.43950000
C        2.88830000      -1.55870000       0.39930000
O        3.37620000      -2.10230000      -0.80960000
C        0.57120000      -0.71360000       1.36760000
O        1.24900000       0.07140000       2.31260000
H        1.53980000       1.52850000      -0.11300000
H        0.23070000       1.60850000      -1.29350000
H       -0.07890000       2.05980000       0.39520000
H       -1.01390000      -0.19080000      -0.11540000
H        1.07920000      -2.72160000       0.49110000
H        3.20320000      -0.50660000       0.51110000
H        3.33600000      -2.12470000       1.22270000
H        2.83450000      -1.71150000      -1.50760000
H       -0.21680000      -1.22140000       1.92600000
H        1.93600000       0.57870000       1.86890000
