19
Properties=species:S:1:pos:R:3 gdb_73557=T pbc="F F F"
C        0.02020000       1.65890000      -0.12110000
C       -0.01550000       0.13210000       0.00700000
C        0.82010000      -0.55160000      -1.09250000
O        2.16520000      -0.48170000      -0.59590000
C        2.16210000      -0.54000000       0.84480000
C        0.71850000      -0.42170000       1.20660000
C       -0.14650000      -0.92870000       2.07280000
C       -1.54290000      -0.75060000       1.51820000
O       -1.35550000      -0.32370000       0.16310000
H        1.04290000       2.00890000      -0.29030000
H       -0.59720000       1.97070000      -0.96900000
H       -0.36910000       2.13490000       0.78340000
H        0.48360000      -1.59040000      -1.22100000
H        0.81020000      -0.04420000      -2.06070000
H        2.60310000      -1.48330000       1.19310000
H        2.78510000       0.28290000       1.21760000
H        0.06250000      -1.45860000       2.99370000
H       -2.10590000      -1.69360000       1.51910000
H       -2.14320000      -0.01300000       2.07610000
