18
Properties=species:S:1:pos:R:3 gdb_8091=T pbc="F F F"
O       -0.04210000       1.41540000      -0.05980000
C        0.00460000       0.01790000       0.04210000
C        0.25550000      -0.70030000       1.40260000
C       -0.66750000      -1.80860000       0.81630000
C       -1.35880000      -0.69430000      -0.01720000
C        0.15840000      -2.69770000      -0.12060000
O        1.22790000      -1.97090000      -0.71680000
C        0.93220000      -0.61500000      -1.01300000
H        0.85610000       1.75800000       0.01110000
H        1.28090000      -0.96780000       1.66870000
H       -0.22790000      -0.16010000       2.21960000
H       -1.28190000      -2.40240000       1.49530000
H       -2.11010000      -0.15150000       0.56160000
H       -1.76040000      -0.95240000      -1.00230000
H        0.63280000      -3.51910000       0.42740000
H       -0.49410000      -3.13850000      -0.89240000
H        0.47760000      -0.50630000      -2.01100000
H        1.89900000      -0.09390000      -1.02570000
