15
Properties=species:S:1:pos:R:3 gdb_25232=T pbc="F F F"
O       -0.10970000      -0.04460000      -0.01660000
C       -0.00060000       1.16280000      -0.00590000
C       -1.22530000       2.14020000       0.00240000
N       -0.67860000       3.51490000      -0.11960000
C        0.69120000       3.34040000      -0.02290000
C        1.15400000       2.03680000      -0.01260000
C        2.58660000       2.10270000      -0.00630000
C        2.91730000       3.42850000      -0.00300000
N        1.73820000       4.19500000      -0.01660000
H       -1.89200000       1.90900000      -0.83300000
H       -1.78600000       2.01130000       0.93410000
H       -1.09250000       4.19800000       0.50240000
H        3.28040000       1.27740000       0.00220000
H        3.87590000       3.92130000       0.01060000
H        1.69800000       5.19880000      -0.05410000
