20
Properties=species:S:1:pos:R:3 gdb_123117=T pbc="F F F"
C       -0.03910000       1.31070000       0.09060000
O        0.00750000      -0.09340000       0.01620000
C        0.65420000      -0.55980000      -1.14640000
C        0.64350000      -2.08300000      -1.11950000
C        1.32670000      -2.67710000      -2.34050000
O        1.25960000      -4.10550000      -2.21550000
C        1.83700000      -4.79700000      -3.22910000
N        1.66460000      -6.13910000      -3.03170000
O        2.39230000      -4.29450000      -4.17780000
H        0.96950000       1.75410000       0.10750000
H       -0.58940000       1.74820000      -0.75790000
H       -0.55470000       1.57270000       1.01770000
H        0.14050000      -0.18470000      -2.04920000
H        1.69050000      -0.18020000      -1.18870000
H        1.14600000      -2.42870000      -0.21000000
H       -0.39270000      -2.43350000      -1.06860000
H        0.83510000      -2.37350000      -3.27120000
H        2.37570000      -2.36990000      -2.41150000
H        1.39370000      -6.46300000      -2.11890000
H        2.23030000      -6.74580000      -3.59960000
