16
Properties=species:S:1:pos:R:3 gdb_36065=T pbc="F F F"
C       -0.84040000      -0.18300000      -1.15620000
C       -0.20870000       0.25660000      -0.23330000
C        0.58200000       0.81180000       0.85940000
C        1.69680000       1.67970000       0.35780000
C        2.71850000       1.53420000      -0.74000000
C        3.71330000       2.28550000       0.17850000
C        2.81510000       3.46800000       0.22830000
C        1.78720000       2.76020000      -0.68840000
N        2.68910000       2.39470000       1.28030000
H       -1.41000000      -0.58210000      -1.95850000
H       -0.06000000       1.40050000       1.52880000
H        1.00290000       0.00150000       1.47040000
H        2.82190000       0.79250000      -1.51840000
H        4.77060000       2.17130000       0.38590000
H        2.99820000       4.50480000       0.48400000
H        1.06980000       3.09910000      -1.42130000
