20
Properties=species:S:1:pos:R:3 gdb_119522=T pbc="F F F"
C        0.02190000       1.55800000      -0.07090000
C       -0.02660000       0.03140000      -0.16630000
C       -1.40530000      -0.54270000       0.19250000
C       -1.46950000      -2.04060000       0.10800000
C       -1.66910000      -2.82230000      -1.16110000
C       -2.67930000      -2.95320000      -0.03450000
N       -2.46690000      -4.05320000       0.88040000
C       -1.33420000      -3.83280000       1.41550000
O       -0.65570000      -2.70430000       1.08430000
H        1.01450000       1.94080000      -0.32690000
H       -0.70000000       2.02270000      -0.75220000
H       -0.21490000       1.89960000       0.94290000
H        0.24060000      -0.28820000      -1.18130000
H        0.72360000      -0.40770000       0.50120000
H       -1.68530000      -0.23010000       1.20680000
H       -2.16630000      -0.13170000      -0.48270000
H       -1.98190000      -2.24940000      -2.02760000
H       -1.02680000      -3.67080000      -1.37180000
H       -3.70070000      -2.61830000      -0.17080000
H       -0.83620000      -4.46680000       2.13890000
