17
Properties=species:S:1:pos:R:3 gdb_77183=T pbc="F F F"
O        0.33660000       1.23030000       0.29160000
C        0.09610000      -0.13390000       0.07000000
C       -1.41680000      -0.52320000       0.05830000
N       -1.19570000      -1.04690000      -1.30830000
C        0.08810000      -0.55470000      -1.42150000
O        0.84730000      -0.42870000      -2.34360000
C       -1.89530000      -1.52580000       1.07850000
C       -2.84750000      -2.60220000       0.71560000
N       -1.44270000      -2.92170000       1.02960000
H        1.12450000       1.46870000      -0.21110000
H        0.70210000      -0.78200000       0.71720000
H       -2.03420000       0.38150000       0.07700000
H       -1.86500000      -1.21830000      -2.04690000
H       -1.94190000      -1.11450000       2.08530000
H       -3.57600000      -2.95380000       1.44020000
H       -3.17100000      -2.67190000      -0.32030000
H       -0.94290000      -3.07330000       0.15450000
