13
Properties=species:S:1:pos:R:3 gdb_8980=T pbc="F F F"
N       -0.07220000       1.37460000      -0.12650000
C       -0.02620000       0.10290000      -0.03270000
N       -1.15870000      -0.66790000       0.02890000
C       -2.44950000      -0.01310000       0.13850000
C       -3.53550000      -0.97770000      -0.03270000
N       -4.38790000      -1.74760000      -0.15000000
C        1.26510000      -0.68990000      -0.02500000
O        2.34060000      -0.15910000      -0.09130000
H        0.88130000       1.72990000      -0.21720000
H       -1.08470000      -1.60910000       0.38170000
H       -2.57280000       0.50550000       1.10060000
H       -2.50930000       0.76180000      -0.63290000
H        1.16130000      -1.79560000       0.04450000
