18
Properties=species:S:1:pos:R:3 gdb_63047=T pbc="F F F"
C       -0.01220000       1.56100000      -0.01890000
C        0.05510000       0.04550000       0.00850000
O       -1.26160000      -0.44960000      -0.06460000
C        1.01100000      -0.61740000      -1.02710000
N        2.31310000       0.06010000      -0.68350000
C        2.25630000      -0.79620000       0.53060000
C        1.42370000      -1.89170000      -0.14210000
O        0.52730000      -2.01100000       0.97990000
C        0.83730000      -0.59240000       1.19870000
H        0.98440000       2.00140000      -0.00860000
H       -0.53520000       1.89030000      -0.92200000
H       -0.58320000       1.91540000       0.84460000
H       -1.20880000      -1.36750000       0.24090000
H        0.69780000      -0.65650000      -2.06840000
H        3.04760000      -0.31900000      -1.28110000
H        3.13660000      -0.93540000       1.15580000
H        1.75760000      -2.82820000      -0.58760000
H        0.66340000      -0.25800000       2.21970000
