15
Properties=species:S:1:pos:R:3 gdb_61726=T pbc="F F F"
C        0.08270000       1.79870000       0.09880000
C        0.07350000       0.26340000      -0.02510000
N        0.69970000      -0.19520000      -1.26140000
C       -0.02800000      -0.75930000      -2.26810000
O       -1.22990000      -0.90760000      -2.25110000
C        0.70490000      -0.37030000       1.13180000
C        1.24720000      -0.87110000       2.08820000
C        1.85960000      -1.43940000       3.16830000
N        2.38410000      -1.92070000       4.08630000
H        1.10660000       2.18250000       0.11790000
H       -0.44290000       2.23080000      -0.75590000
H       -0.41850000       2.11000000       1.01880000
H       -0.96450000      -0.08290000      -0.09580000
H        1.70180000      -0.13210000      -1.35190000
H        0.61220000      -1.06370000      -3.11730000
