14
Properties=species:S:1:pos:R:3 gdb_133240=T pbc="F F F"
C       -0.02970000       1.49140000       0.01620000
N       -0.00640000       0.03170000       0.02580000
N       -0.04240000      -0.58550000      -1.17580000
C       -0.02280000      -1.88070000      -1.19590000
C        0.03600000      -2.77660000      -0.02180000
O        0.05120000      -3.99550000      -0.12680000
C        0.07190000      -2.03470000       1.22680000
C        0.04880000      -0.68410000       1.17910000
F        0.07830000       0.07440000       2.26700000
H        0.87200000       1.89790000       0.48150000
H       -0.07430000       1.78930000      -1.02930000
H       -0.90570000       1.86990000       0.54930000
H       -0.05310000      -2.33720000      -2.18060000
H        0.11620000      -2.54630000       2.17860000
