14
Properties=species:S:1:pos:R:3 gdb_4180=T pbc="F F F"
O       -0.06520000       1.33680000      -0.04640000
N        0.06200000      -0.06030000      -0.07360000
C       -1.06320000      -0.62860000       0.03830000
C       -1.42080000      -2.07060000      -0.03700000
N       -2.30880000      -2.31760000       1.15070000
C       -2.87780000      -1.71670000      -0.07020000
C       -2.55940000      -0.20800000       0.06840000
O       -3.07490000       0.44920000       1.18340000
H        0.84820000       1.62550000      -0.14880000
H       -0.88590000      -2.88190000      -0.51110000
H       -2.53990000      -3.31070000       1.14730000
H       -3.68820000      -2.18540000      -0.61300000
H       -2.81710000       0.37800000      -0.81800000
H       -2.90870000      -0.13820000       1.93340000
