13
Properties=species:S:1:pos:R:3 gdb_1439=T pbc="F F F"
C       -0.07650000       1.36280000       0.12470000
O        0.02610000      -0.05870000      -0.03640000
C        0.66320000      -0.46520000      -1.15290000
O        1.12540000       0.27470000      -1.97700000
C        0.69110000      -1.99290000      -1.18080000
C        1.35610000      -2.55230000      -2.34490000
C        1.90010000      -3.04020000      -3.29690000
H        0.91630000       1.81720000       0.16900000
H       -0.62870000       1.80510000      -0.70810000
H       -0.61010000       1.51670000       1.06240000
H        1.17030000      -2.33160000      -0.25390000
H       -0.34630000      -2.34360000      -1.11450000
H        2.38450000      -3.45780000      -4.14450000
