21
Properties=species:S:1:pos:R:3 gdb_61644=T pbc="F F F"
C        0.03660000       1.53680000      -0.17590000
C        0.08140000       0.03890000       0.01720000
N        1.40240000      -0.61080000      -0.00440000
C        0.60060000      -0.65040000       1.23220000
C        1.15200000       0.07250000       2.44580000
N        2.06160000      -0.74400000       3.23270000
C        3.39000000      -1.01750000       2.70610000
C        1.70570000      -1.21770000       4.46060000
O        2.39600000      -1.90320000       5.18600000
H        0.89300000       2.02860000       0.28990000
H        0.05680000       1.78090000      -1.24330000
H       -0.88160000       1.95880000       0.24670000
H       -0.72550000      -0.49130000      -0.48820000
H        1.36020000      -1.50320000      -0.48830000
H        0.12310000      -1.59720000       1.48400000
H        1.67010000       0.98460000       2.13020000
H        0.32150000       0.37050000       3.09610000
H        3.93940000      -0.08160000       2.54800000
H        3.91500000      -1.63100000       3.43810000
H        3.33420000      -1.54200000       1.74850000
H        0.68060000      -0.89850000       4.73720000
