16
Properties=species:S:1:pos:R:3 gdb_54804=T pbc="F F F"
N       -0.02530000       1.24820000       0.33650000
C        0.14120000      -0.03360000      -0.10320000
O        1.18550000      -0.48010000      -0.53270000
C       -1.14430000      -0.84730000      -0.01810000
C       -1.08040000      -2.37650000       0.05640000
C       -0.38150000      -2.79160000       1.29410000
C       -1.84690000      -2.36580000       1.41360000
C       -1.91620000      -0.87780000       1.33090000
O       -2.44600000      -0.00390000       1.96290000
H        0.79590000       1.82680000       0.41570000
H       -0.83960000       1.48810000       0.88360000
H       -1.84490000      -0.49120000      -0.78220000
H       -1.26230000      -3.04240000      -0.77510000
H       -0.23560000      -3.85790000       1.43180000
H        0.40960000      -2.17830000       1.71250000
H       -2.59780000      -3.03390000       1.81470000
