20
Properties=species:S:1:pos:R:3 gdb_110779=T pbc="F F F"
C        0.00950000       1.68030000      -0.29510000
C       -0.39230000       0.20690000      -0.28280000
N        0.44780000      -0.54750000      -1.20800000
C        1.71810000      -1.14120000      -0.80940000
C        2.03230000      -1.35010000       0.66020000
C        0.91160000      -2.24820000       1.20990000
O        0.72300000      -2.49930000       2.37060000
C        0.07100000      -2.77140000       0.03380000
C        0.53690000      -2.00000000      -1.18690000
H        1.03390000       1.81070000       0.06920000
H       -0.03860000       2.08090000      -1.31130000
H       -0.65430000       2.26660000       0.34740000
H       -0.37460000      -0.16540000       0.75340000
H       -1.42610000       0.09980000      -0.63180000
H        2.54590000      -0.96570000      -1.49080000
H        2.98860000      -1.87540000       0.77610000
H        2.10390000      -0.43480000       1.25630000
H        0.26940000      -3.84350000      -0.08890000
H       -0.99480000      -2.67370000       0.26320000
H        0.45990000      -2.48150000      -2.15800000
