18
Properties=species:S:1:pos:R:3 gdb_89554=T pbc="F F F"
O        0.53250000       0.55290000      -1.03890000
C       -0.10860000      -0.27210000      -0.10540000
C        0.31070000      -0.22260000       1.39260000
C       -1.17470000      -0.40350000       1.75270000
C       -1.56940000       0.03870000       0.33240000
C       -1.71040000      -1.70660000       2.38160000
C       -2.20180000      -0.78870000       3.47910000
N       -2.82890000      -0.94470000       4.55260000
O       -1.70680000       0.35550000       2.88340000
H        0.48130000       1.46200000      -0.72460000
H       -0.02420000      -1.28630000      -0.50500000
H        1.03250000      -0.95190000       1.76650000
H        0.64060000       0.78460000       1.66950000
H       -1.75700000       1.11780000       0.31750000
H       -2.39390000      -0.47570000      -0.16580000
H       -2.49910000      -2.21660000       1.82530000
H       -0.95640000      -2.43090000       2.69530000
H       -2.97390000      -0.05290000       5.02940000
