23
Properties=species:S:1:pos:R:3 gdb_120980=T pbc="F F F"
C       -0.00770000       1.47360000       0.30160000
C       -0.07430000      -0.04640000       0.13580000
C       -1.50240000      -0.56360000      -0.08470000
C       -1.55610000      -2.07500000      -0.20290000
O       -1.14020000      -2.75920000       1.01430000
C       -2.29510000      -3.62210000       0.98120000
C       -3.43790000      -3.12730000       1.89570000
C       -4.03200000      -2.32480000       0.69390000
C       -2.89410000      -2.84820000      -0.22700000
H        1.02050000       1.81280000       0.46190000
H       -0.39380000       1.98830000      -0.58570000
H       -0.60420000       1.80430000       1.15930000
H        0.55620000      -0.35360000      -0.70900000
H        0.33990000      -0.53870000       1.02300000
H       -2.13710000      -0.23620000       0.74700000
H       -1.92430000      -0.12630000      -1.00080000
H       -0.90920000      -2.39510000      -1.03510000
H       -2.02370000      -4.68160000       0.99110000
H       -4.09480000      -3.92310000       2.25750000
H       -3.08580000      -2.54160000       2.74770000
H       -5.01550000      -2.68590000       0.38490000
H       -4.09730000      -1.24130000       0.81530000
H       -3.18240000      -3.30150000      -1.17480000
