17
Properties=species:S:1:pos:R:3 gdb_30199=T pbc="F F F"
C       -0.38390000       1.62140000      -0.44290000
C       -0.00970000       0.19020000      -0.10980000
C        0.76390000      -0.64930000      -1.20520000
C        1.89020000      -0.73380000      -0.18570000
C        3.05460000      -1.11610000       0.41580000
N        3.08050000      -0.57900000       1.70300000
C        1.95610000       0.08150000       1.85940000
O        1.56000000       0.75290000       2.95620000
N        1.20770000       0.03090000       0.73430000
H        0.46690000       2.15540000      -0.87620000
H       -1.20810000       1.63480000      -1.16340000
H       -0.70770000       2.15810000       0.45410000
H       -0.85940000      -0.35030000       0.31790000
H        0.28550000      -1.59400000      -1.47540000
H        0.98160000      -0.08670000      -2.11740000
H        3.87090000      -1.71760000       0.05020000
H        2.26900000       0.64440000       3.60260000
