19
Properties=species:S:1:pos:R:3 gdb_69168=T pbc="F F F"
C        0.01120000       1.56050000       0.08440000
C        0.02320000       0.06280000      -0.00050000
C       -0.89380000      -0.83980000       0.74990000
C        0.60490000      -0.95790000       1.02580000
C        1.26820000      -1.67970000      -0.11310000
O        2.09770000      -2.54510000      -0.19140000
C        0.64730000      -0.74770000      -1.13770000
C        0.13830000      -1.07440000      -2.51540000
C        1.39060000      -0.25590000      -2.35000000
H        1.00170000       1.97900000      -0.12220000
H       -0.69150000       1.99180000      -0.63880000
H       -0.29830000       1.89490000       1.07940000
H       -1.44880000      -0.38990000       1.56840000
H       -1.41970000      -1.64490000       0.24450000
H        1.00930000      -0.79890000       2.01780000
H        0.23780000      -2.10180000      -2.85000000
H       -0.76080000      -0.56970000      -2.85420000
H        1.34110000       0.80420000      -2.57610000
H        2.34600000      -0.72600000      -2.55800000
