17
Properties=species:S:1:pos:R:3 gdb_63119=T pbc="F F F"
C        0.00380000       1.56840000       0.02570000
C        0.04200000       0.06250000      -0.06490000
O       -1.10200000      -0.59400000       0.39910000
C        0.62540000      -0.73010000      -1.20030000
C        1.91040000      -0.11050000      -1.74920000
N        2.48030000       0.02360000      -0.36310000
C        1.32610000      -0.73300000       0.17460000
C        1.43350000      -1.73450000       1.17760000
N        1.53510000      -2.52910000       2.01450000
H        0.95950000       2.01050000      -0.25900000
H       -0.78940000       1.96420000      -0.61560000
H       -0.20920000       1.87270000       1.05690000
H       -1.16470000      -0.46240000       1.35260000
H        0.04020000      -1.51370000      -1.66280000
H        2.46600000      -0.82000000      -2.36880000
H        1.82230000       0.84120000      -2.28260000
H        3.34000000      -0.50650000      -0.26790000
