16
Properties=species:S:1:pos:R:3 gdb_46633=T pbc="F F F"
O       -0.00840000      -0.07560000       0.06450000
C        0.00680000       1.13120000       0.04710000
N       -1.07610000       1.99130000      -0.10340000
C       -0.71860000       3.40140000       0.03620000
C        0.78690000       3.30570000       0.02050000
N        1.73420000       4.13730000      -0.12850000
C        2.97680000       3.32670000      -0.06710000
C        2.54800000       1.81330000      -0.03240000
N        1.11360000       1.96890000       0.16610000
H       -1.99420000       1.64330000       0.11640000
H       -1.09290000       4.01610000      -0.78810000
H       -1.07280000       3.83960000       0.97890000
H        3.61140000       3.55420000      -0.92800000
H        3.54020000       3.60040000       0.83180000
H        2.75790000       1.28950000      -0.97100000
H        3.00940000       1.25410000       0.78430000
