17
Properties=species:S:1:pos:R:3 gdb_67764=T pbc="F F F"
C        0.01930000       1.55870000       0.02750000
C        0.00630000       0.04430000       0.05080000
C       -1.34400000      -0.66360000      -0.01760000
C       -1.32730000      -1.78950000       0.71610000
C       -0.06630000      -1.90570000       1.45660000
C        0.70430000      -0.66900000       1.23930000
N        1.33870000      -1.85320000       0.65330000
C        1.23670000      -1.62680000      -0.73170000
N        0.64520000      -0.57230000      -1.15440000
H        1.04730000       1.93450000       0.03220000
H       -0.47080000       1.93190000      -0.87590000
H       -0.50340000       1.96590000       0.89900000
H       -2.10760000      -0.37220000      -0.72860000
H       -2.09370000      -2.55450000       0.72360000
H        0.04730000      -2.53670000       2.32800000
H        1.24340000      -0.13220000       2.01510000
H        1.67290000      -2.36300000      -1.40060000
