10
Properties=species:S:1:pos:R:3 gdb_14562=T pbc="F F F"
C        0.10360000      -7.69530000      -0.04210000
C        0.09100000      -6.48520000      -0.03190000
C        0.07500000      -5.13510000      -0.02330000
C        0.05990000      -3.91380000      -0.01600000
C        0.04260000      -2.57240000      -0.00870000
C        0.02490000      -1.35120000      -0.00320000
C        0.00110000      -0.00120000       0.00060000
C       -0.02020000       1.20880000       0.00530000
H        0.11220000      -8.75760000      -0.05330000
H       -0.03510000       2.27100000       0.01120000
