19
Properties=species:S:1:pos:R:3 gdb_11829=T pbc="F F F"
C       -0.83590000       1.11630000      -0.05610000
C        0.15460000      -0.03440000       0.01240000
C        1.50040000       0.08820000      -0.76860000
C        2.18700000      -0.53550000       0.44940000
C        3.00410000      -1.76980000       0.44660000
N        3.57470000      -0.47650000       0.87350000
C        0.97900000      -0.22810000       1.33630000
O        1.20940000       0.97010000       2.05150000
H       -0.36570000       2.05130000       0.26310000
H       -1.20500000       1.25590000      -1.07760000
H       -1.70760000       0.93660000       0.58470000
H       -0.33650000      -0.97950000      -0.24260000
H        1.58280000      -0.43420000      -1.72540000
H        1.78720000       1.13630000      -0.90660000
H        2.89920000      -2.50350000       1.24210000
H        3.29240000      -2.18360000      -0.51720000
H        4.14950000      -0.07890000       0.13400000
H        0.64230000      -1.03090000       2.00660000
H        0.39250000       1.20550000       2.50340000
