18
Properties=species:S:1:pos:R:3 gdb_102923=T pbc="F F F"
O        0.09380000       1.40020000      -0.14540000
C        0.09760000      -0.00530000       0.03950000
C       -1.36550000      -0.48210000       0.01860000
C       -1.46750000      -2.01100000      -0.01770000
C       -2.89070000      -2.51540000      -0.33610000
C       -2.93850000      -3.96930000      -0.47000000
N       -2.95580000      -5.11990000      -0.57620000
C       -2.11450000       0.14320000       1.18600000
O       -2.80980000      -0.46950000       1.95920000
H        0.98740000       1.73040000      -0.01420000
H        0.64970000      -0.51580000      -0.76390000
H        0.56920000      -0.28750000       0.99410000
H       -1.80220000      -0.04790000      -0.89480000
H       -0.77520000      -2.40000000      -0.77170000
H       -1.15720000      -2.42360000       0.94750000
H       -3.57500000      -2.20810000       0.45900000
H       -3.25260000      -2.07200000      -1.27150000
H       -1.96210000       1.23600000       1.29020000
