21
Properties=species:S:1:pos:R:3 gdb_101487=T pbc="F F F"
C       -0.27160000       1.03430000       0.20500000
O       -0.21940000      -0.33550000      -0.12040000
C        0.62770000      -0.65600000      -1.21450000
C        2.10020000      -0.71680000      -0.80720000
C        0.15150000      -2.00570000      -1.77920000
O        0.25030000      -3.05330000      -0.84270000
C       -1.01580000      -3.17720000      -0.20050000
C       -2.00770000      -2.50330000      -1.17540000
O       -1.18990000      -1.95280000      -2.20370000
H        0.69600000       1.42110000       0.55620000
H       -0.59590000       1.64180000      -0.65390000
H       -1.00100000       1.14700000       1.01110000
H        0.48650000       0.08710000      -2.01680000
H        2.23980000      -1.48730000      -0.04500000
H        2.72860000      -0.96260000      -1.66970000
H        2.44450000       0.24220000      -0.41090000
H        0.77780000      -2.26510000      -2.64330000
H       -1.21600000      -4.24280000      -0.05480000
H       -1.00660000      -2.67210000       0.77020000
H       -2.69990000      -3.21690000      -1.63500000
H       -2.58240000      -1.71450000      -0.67940000
