19
Properties=species:S:1:pos:R:3 gdb_88576=T pbc="F F F"
C       -0.20220000       1.47860000      -0.20540000
C       -0.03710000       0.00410000       0.05000000
O        1.26620000      -0.56900000      -0.06340000
C        0.64030000      -0.58470000       1.22920000
C        1.30400000       0.18680000       2.30280000
C        0.99880000       0.20260000       3.59920000
C        1.97300000       1.06340000       4.34960000
O        2.87260000       1.55610000       3.36170000
C        2.54450000       1.02240000       2.08390000
H        0.55510000       2.07280000       0.30730000
H       -0.13480000       1.68640000      -1.27840000
H       -1.18930000       1.80720000       0.13730000
H       -0.81560000      -0.61760000      -0.39880000
H        0.28700000      -1.57090000       1.53560000
H        0.18710000      -0.33060000       4.07890000
H        1.48800000       1.90760000       4.86540000
H        2.52490000       0.49460000       5.11640000
H        3.37280000       0.41080000       1.69420000
H        2.39820000       1.84540000       1.37030000
