18
Properties=species:S:1:pos:R:3 gdb_42880=T pbc="F F F"
O        0.00830000       0.13460000       0.53710000
C       -0.01170000       1.29090000       0.23670000
C       -1.10670000       2.30770000      -0.13950000
C       -1.67810000       3.06380000       1.05550000
C       -0.68340000       3.61010000       2.04680000
C        0.65220000       3.62790000       2.02660000
C        1.63070000       3.10800000       1.00560000
C        1.04390000       2.33640000      -0.17200000
N       -0.05240000       3.10960000      -0.85230000
H       -1.91210000       1.92590000      -0.77530000
H       -2.28750000       3.89710000       0.67750000
H       -2.37530000       2.39770000       1.58280000
H       -1.15930000       4.07470000       2.90910000
H        1.14140000       4.10540000       2.87430000
H        2.20600000       3.95710000       0.60960000
H        2.36110000       2.46090000       1.51120000
H        1.83960000       1.97600000      -0.83200000
H       -0.06420000       2.87260000      -1.84020000
