16
Properties=species:S:1:pos:R:3 gdb_8814=T pbc="F F F"
C       -0.30240000       1.60290000       1.18660000
C       -0.24330000       0.40010000       0.22490000
C        0.64440000      -0.65560000       0.70410000
C        1.38650000      -1.50480000       1.11980000
C       -1.65430000      -0.10670000      -0.12620000
O       -2.60590000       0.64240000      -0.12770000
C       -1.84520000      -1.55790000      -0.53070000
O       -3.15290000      -1.79920000      -0.95510000
H        0.69180000       2.03870000       1.30450000
H       -0.98750000       2.35490000       0.79270000
H       -0.66070000       1.28850000       2.17000000
H        0.15040000       0.75570000      -0.74160000
H        2.03980000      -2.26050000       1.48100000
H       -1.11430000      -1.80280000      -1.31830000
H       -1.57160000      -2.18350000       0.33430000
H       -3.62610000      -0.96380000      -0.81610000
