23
Properties=species:S:1:pos:R:3 gdb_106364=T pbc="F F F"
C        0.09550000       1.52760000      -0.19030000
C        0.01530000       0.02030000       0.08110000
C       -1.39880000      -0.52340000       0.06150000
C       -2.32050000      -0.47670000      -1.21510000
C       -3.11350000      -1.55070000      -0.40000000
C       -1.71250000      -2.06400000       0.07170000
C       -3.53330000      -0.71930000       0.82940000
C       -4.87970000      -0.73350000       1.46520000
C       -2.41280000      -0.05230000       1.12490000
H        1.13150000       1.87920000      -0.16400000
H       -0.31590000       1.77320000      -1.17500000
H       -0.46970000       2.09870000       0.55360000
H        0.61530000      -0.51570000      -0.66540000
H        0.47120000      -0.20370000       1.05520000
H       -2.83090000       0.46360000      -1.43780000
H       -1.83620000      -0.88030000      -2.11160000
H       -3.85400000      -2.20610000      -0.85990000
H       -1.16840000      -2.61980000      -0.70070000
H       -1.66140000      -2.58190000       1.03300000
H       -5.15170000      -1.74070000       1.80770000
H       -4.92070000      -0.06120000       2.32730000
H       -5.66170000      -0.42640000       0.75840000
H       -2.22070000       0.65280000       1.92280000
