17
Properties=species:S:1:pos:R:3 gdb_46599=T pbc="F F F"
O       -0.06980000      -0.01660000       0.18050000
C       -0.00950000       1.16930000       0.03560000
O       -1.15030000       1.94540000      -0.07390000
C       -0.87370000       3.25680000      -0.62430000
C        0.62650000       3.43070000      -0.53260000
C        1.23960000       3.26950000       0.81690000
C        1.16980000       2.06770000      -0.09330000
C        2.25500000       2.10380000      -1.18470000
C        1.68010000       3.48540000      -1.65950000
H       -1.22110000       3.27810000      -1.66370000
H       -1.45580000       3.97930000      -0.04500000
H        2.21990000       3.69020000       1.01870000
H        0.56190000       3.27390000       1.66360000
H        3.28560000       2.09600000      -0.82070000
H        2.14060000       1.31230000      -1.92650000
H        1.22990000       3.42820000      -2.65310000
H        2.35960000       4.34170000      -1.63330000
