16
Properties=species:S:1:pos:R:3 gdb_80844=T pbc="F F F"
O        0.11120000       1.44230000       0.16840000
C        0.05290000       0.04490000       0.08130000
C        0.03310000      -0.65160000       1.47340000
C       -1.46400000      -0.24020000       1.59190000
C       -1.40040000      -0.56140000       0.05130000
O       -2.35460000      -0.20830000      -0.87240000
C       -1.06620000      -2.05390000       0.11880000
O       -1.61180000      -2.94490000      -0.49220000
N       -0.03380000      -2.06360000       1.02690000
H       -0.35310000       1.80140000      -0.59650000
H        0.77390000      -0.36020000      -0.64070000
H        0.78140000      -0.45250000       2.23500000
H       -2.11040000      -0.85950000       2.21760000
H       -1.60160000       0.82160000       1.78950000
H       -2.64720000      -1.03670000      -1.28590000
H        0.18990000      -2.85530000       1.60900000
