13
Properties=species:S:1:pos:R:3 gdb_125727=T pbc="F F F"
C       -0.15120000       1.52040000       0.10000000
C       -0.04150000       0.03980000      -0.04760000
N        0.19400000      -0.46190000      -1.19760000
O        0.28740000      -1.87900000      -1.27870000
C        0.13660000      -2.66600000      -0.19150000
O        0.22090000      -3.85740000      -0.28650000
C       -0.13890000      -1.99200000       1.12940000
N       -0.30030000      -2.59470000       2.21850000
O       -0.21560000      -0.62190000       1.12160000
H        0.59990000       1.87930000       0.81020000
H       -0.00380000       1.99850000      -0.86720000
H       -1.13660000       1.78190000       0.49740000
H       -0.21300000      -3.59870000       2.05010000
