21
Properties=species:S:1:pos:R:3 gdb_91794=T pbc="F F F"
C       -0.43860000       1.30780000       0.02090000
C        0.06940000      -0.11400000       0.01450000
C       -0.58040000      -1.15020000       0.90760000
C        0.84880000      -0.73540000       1.15710000
C        1.93980000      -1.63410000       0.58430000
C        1.55240000      -1.86760000      -0.88810000
O        0.78820000      -3.05370000      -1.02340000
C        0.69450000      -0.62320000      -1.27170000
O       -0.30600000      -0.95260000      -2.24220000
H        0.35120000       2.01810000      -0.25410000
H       -1.26020000       1.42960000      -0.69390000
H       -0.81230000       1.59150000       1.00950000
H       -1.33070000      -0.77270000       1.59490000
H       -0.76960000      -2.14690000       0.53020000
H        1.07190000      -0.15410000       2.04580000
H        2.90910000      -1.12450000       0.63790000
H        2.04040000      -2.59170000       1.10470000
H        2.44570000      -1.93620000      -1.52770000
H        0.09970000      -2.83770000      -1.67050000
H        1.34910000       0.16340000      -1.67390000
H        0.08780000      -0.88430000      -3.11790000
