21
Properties=species:S:1:pos:R:3 gdb_121247=T pbc="F F F"
C       -0.27570000       1.35500000       0.12920000
O       -0.22880000      -0.04030000      -0.05500000
C        0.80590000      -0.44820000      -0.92470000
C        0.72140000      -1.95800000      -1.04270000
C       -0.43600000      -2.54280000      -1.87760000
O        0.48050000      -3.29240000      -2.71020000
C        1.63450000      -2.71550000      -2.04230000
C        2.47620000      -1.95670000      -3.05890000
O        2.86340000      -2.83600000      -4.09670000
H        0.65840000       1.74010000       0.56790000
H       -0.45330000       1.88720000      -0.81870000
H       -1.10080000       1.56700000       0.81330000
H        0.68770000       0.03640000      -1.90820000
H        1.78930000      -0.14160000      -0.52740000
H        0.76890000      -2.38220000      -0.03750000
H       -1.13490000      -3.20050000      -1.35070000
H       -1.00710000      -1.80440000      -2.45480000
H        2.24900000      -3.50650000      -1.59420000
H        1.91390000      -1.09770000      -3.45720000
H        3.39430000      -1.57610000      -2.59720000
H        2.04840000      -3.26200000      -4.39190000
