17
Properties=species:S:1:pos:R:3 gdb_117327=T pbc="F F F"
N       -0.27960000       1.37900000      -0.05110000
C        0.12810000       0.05710000       0.07110000
O        1.26860000      -0.27540000       0.26360000
N       -0.97070000      -0.82490000       0.01240000
C       -0.92380000      -2.22030000      -0.05670000
O        0.08700000      -2.85440000      -0.22720000
C       -2.29980000      -2.85920000       0.08980000
C       -2.24650000      -4.37290000      -0.05880000
O       -3.57670000      -4.84770000       0.08830000
H        0.49790000       2.01560000      -0.14410000
H       -1.05900000       1.58630000      -0.65760000
H       -1.88410000      -0.41450000       0.13400000
H       -2.72020000      -2.60080000       1.07000000
H       -2.98660000      -2.44200000      -0.65780000
H       -1.82520000      -4.63190000      -1.04000000
H       -1.57400000      -4.79250000       0.70150000
H       -3.55970000      -5.80620000       0.01470000
