20
Properties=species:S:1:pos:R:3 gdb_120111=T pbc="F F F"
C        0.17960000       1.47390000       0.07340000
C        0.37680000      -0.04000000      -0.03040000
C        0.47560000      -0.52660000      -1.48400000
C        0.61580000      -2.03020000      -1.57920000
C        1.35790000      -2.78990000      -2.59800000
C        2.61310000      -2.07890000      -3.10000000
C        2.98780000      -1.97660000      -1.61250000
O        3.89790000      -1.52660000      -0.98910000
N        1.85910000      -2.75920000      -1.13890000
H        1.01440000       2.01430000      -0.38650000
H       -0.73960000       1.79200000      -0.43160000
H        0.11340000       1.79330000       1.11770000
H        1.28640000      -0.33660000       0.50410000
H       -0.45400000      -0.55690000       0.46690000
H       -0.43130000      -0.24000000      -2.03350000
H        1.30850000      -0.01790000      -1.98110000
H       -0.24710000      -2.56000000      -1.17810000
H        0.98550000      -3.72170000      -3.00740000
H        3.29930000      -2.74510000      -3.62950000
H        2.50570000      -1.15150000      -3.66700000
