13
Properties=species:S:1:pos:R:3 gdb_133241=T pbc="F F F"
C       -0.03080000       1.49840000       0.00130000
N       -0.00700000       0.03750000       0.02370000
N       -0.04620000      -0.60080000      -1.17710000
C       -0.02480000      -1.88920000      -1.14680000
C        0.03840000      -2.70820000       0.08690000
O        0.05640000      -3.91770000       0.06280000
N        0.07540000      -1.96060000       1.27620000
C        0.05100000      -0.69280000       1.16370000
F        0.08340000       0.06870000       2.24730000
H        0.87250000       1.90590000       0.46120000
H       -0.07810000       1.79000000      -1.04620000
H       -0.90580000       1.87810000       0.53390000
H       -0.05600000      -2.39880000      -2.10400000
