16
Properties=species:S:1:pos:R:3 gdb_5686=T pbc="F F F"
C        0.04640000       1.51600000      -0.07040000
C        1.55750000       1.91200000       0.06300000
C        2.09270000       0.65740000       0.65970000
C        1.25940000      -0.40840000       0.65820000
C       -0.05860000      -0.04740000       0.03560000
C        2.01000000      -1.49760000       1.20960000
C        3.23750000      -0.97880000       1.49830000
O        3.31070000       0.34890000       1.16160000
H       -0.50880000       1.96560000       0.75760000
H       -0.39410000       1.89570000      -0.99540000
H        2.01290000       2.13210000      -0.91200000
H        1.69570000       2.80250000       0.68540000
H       -0.93060000      -0.34790000       0.62630000
H       -0.17870000      -0.50900000      -0.95330000
H        1.70070000      -2.51720000       1.38100000
H        4.13050000      -1.39320000       1.93650000
