16
Properties=species:S:1:pos:R:3 gdb_24416=T pbc="F F F"
C        0.01240000       1.41580000       0.01290000
C        1.45700000       1.97110000       0.00510000
C        2.16100000       1.20010000      -1.04760000
C        1.72430000       0.06290000      -1.62970000
C        0.43860000      -0.58230000      -1.22080000
O       -0.02120000      -0.00240000      -0.00400000
N        2.63760000      -0.34890000      -2.59390000
C        3.56640000       0.54970000      -2.53310000
O        3.35910000       1.53320000      -1.61800000
H       -0.51220000       1.71860000       0.92250000
H       -0.53470000       1.82370000      -0.85190000
H        1.44200000       3.04630000      -0.20840000
H        1.92740000       1.83850000       0.98750000
H       -0.32350000      -0.48180000      -2.01210000
H        0.56830000      -1.65090000      -1.02280000
H        4.47470000       0.61440000      -3.11100000
