19
Properties=species:S:1:pos:R:3 gdb_8293=T pbc="F F F"
C       -0.27820000       1.55480000       0.10580000
C        0.06710000       0.06410000       0.07090000
C        0.46880000      -0.42220000      -1.32650000
C        0.84380000      -1.88910000      -1.36250000
C        1.56290000      -2.43560000      -2.61540000
C        2.71490000      -2.67120000      -1.66210000
N        3.86990000      -3.14690000      -1.77010000
O        2.04940000      -2.17320000      -0.56110000
H        0.57480000       2.16590000      -0.20940000
H       -1.11480000       1.78550000      -0.56340000
H       -0.56060000       1.87330000       1.11380000
H        0.88910000      -0.14550000       0.76460000
H       -0.79140000      -0.52190000       0.42470000
H       -0.35840000      -0.26620000      -2.03310000
H        1.31610000       0.16850000      -1.69900000
H        0.02430000      -2.51990000      -1.00190000
H        1.14460000      -3.33980000      -3.06000000
H        1.76220000      -1.70190000      -3.39920000
H        4.35570000      -3.14220000      -0.87150000
