21
Properties=species:S:1:pos:R:3 gdb_102699=T pbc="F F F"
C       -0.20900000       1.44630000       0.23640000
C       -0.08800000      -0.04410000      -0.08770000
C       -1.44420000      -0.74960000      -0.18410000
C       -1.27480000      -2.22010000      -0.56900000
O       -2.54620000      -2.86040000      -0.68170000
C       -3.01020000      -3.51240000       0.40470000
O       -4.11630000      -3.96000000       0.45850000
O       -2.10720000      -0.69510000       1.07430000
C       -3.40240000      -0.11960000       1.05020000
H        0.77780000       1.90990000       0.32420000
H       -0.75980000       1.98080000      -0.54540000
H       -0.73610000       1.59010000       1.18330000
H        0.44940000      -0.18230000      -1.03440000
H        0.50460000      -0.54370000       0.68880000
H       -2.06080000      -0.26050000      -0.95170000
H       -0.78790000      -2.31830000      -1.54280000
H       -0.65910000      -2.72930000       0.18380000
H       -2.25770000      -3.59490000       1.20990000
H       -3.77740000      -0.14360000       2.07630000
H       -3.37480000       0.92470000       0.70880000
H       -4.09070000      -0.68440000       0.40820000
