19
Properties=species:S:1:pos:R:3 gdb_111981=T pbc="F F F"
O        0.15060000       1.13710000      -0.52760000
C        0.01990000      -0.25960000      -0.30580000
C       -1.43080000      -0.52940000       0.10060000
C       -2.42170000      -0.16930000      -0.97970000
C       -3.01160000      -1.23700000      -1.52340000
C       -2.49130000      -2.51840000      -0.93530000
O       -1.59670000      -3.21480000      -1.82430000
C       -1.73660000      -2.04200000       0.34430000
O       -0.61310000      -2.84400000       0.62240000
H        1.07810000       1.32960000      -0.69200000
H        0.26550000      -0.83120000      -1.21660000
H        0.68640000      -0.61530000       0.49030000
H       -1.61510000       0.05980000       1.00700000
H       -2.60290000       0.85960000      -1.26900000
H       -3.74060000      -1.22010000      -2.32590000
H       -3.26590000      -3.25280000      -0.69690000
H       -1.16590000      -2.54830000      -2.37220000
H       -2.42580000      -2.11390000       1.19420000
H       -0.44440000      -3.33120000      -0.19910000
