25
Properties=species:S:1:pos:R:3 gdb_60525=T pbc="F F F"
C        0.00770000       1.52910000       0.01520000
C       -0.01640000      -0.01160000       0.06440000
C        0.57410000      -0.48390000       1.40610000
C       -1.47180000      -0.49280000      -0.06380000
C        0.82370000      -0.54430000      -1.12750000
O        2.13940000      -0.00780000      -0.98270000
C        0.89250000      -2.05190000      -1.26590000
C       -0.07050000      -2.80430000      -2.14570000
C        1.36170000      -2.63840000      -2.58240000
H        1.02730000       1.90960000       0.10360000
H       -0.40950000       1.89850000      -0.92890000
H       -0.59190000       1.94750000       0.83070000
H        0.04610000      -0.00980000       2.24030000
H        0.47820000      -1.56700000       1.53520000
H        1.63270000      -0.22310000       1.47510000
H       -1.91260000      -0.18670000      -1.01960000
H       -1.55020000      -1.58100000       0.00990000
H       -2.08390000      -0.05830000       0.73380000
H        0.36420000      -0.14680000      -2.05150000
H        2.70830000      -0.48560000      -1.59450000
H        1.23840000      -2.57110000      -0.37720000
H       -0.40300000      -3.78440000      -1.82230000
H       -0.82550000      -2.23400000      -2.67600000
H        1.55550000      -1.95660000      -3.40570000
H        2.01500000      -3.50330000      -2.55950000
