18
Properties=species:S:1:pos:R:3 gdb_27162=T pbc="F F F"
N       -0.00360000       1.42940000       0.02780000
C        0.05790000       0.02310000       0.00570000
C       -1.02050000      -0.82740000       0.13120000
N       -0.52780000      -2.12810000       0.15460000
C        0.83560000      -2.09840000       0.02450000
C        1.23140000      -0.78410000      -0.06360000
N       -2.36860000      -0.44670000       0.23450000
C       -3.43110000      -1.31660000      -0.26890000
C       -3.25830000      -1.10650000       1.19580000
H        0.55640000       1.84890000      -0.70500000
H       -0.96500000       1.73520000      -0.07660000
H       -1.07930000      -2.96280000       0.23470000
H        1.41140000      -3.00960000       0.00510000
H        2.24680000      -0.43090000      -0.15880000
H       -4.23220000      -0.81540000      -0.80570000
H       -3.15380000      -2.28460000      -0.68130000
H       -2.85160000      -1.92800000       1.78170000
H       -3.93130000      -0.45000000       1.74030000
