19
Properties=species:S:1:pos:R:3 gdb_100797=T pbc="F F F"
O        0.00340000       1.37930000      -0.29370000
C        0.04780000      -0.01740000       0.00310000
C       -1.36760000      -0.59680000       0.00060000
O       -2.03330000      -0.22050000      -1.19130000
C       -1.36790000      -2.13100000       0.07630000
O       -0.67750000      -2.57840000       1.22750000
C       -2.78990000      -2.67090000       0.06320000
C       -3.09960000      -4.00340000       0.58490000
O       -3.35640000      -2.82940000       1.37620000
H       -0.31970000       1.83850000       0.48900000
H        0.63040000      -0.47100000      -0.80580000
H        0.55270000      -0.22450000       0.95240000
H       -1.90910000      -0.20910000       0.88510000
H       -1.71950000       0.67250000      -1.38930000
H       -0.83200000      -2.51270000      -0.80230000
H       -1.34010000      -2.58200000       1.93480000
H       -3.45340000      -2.21460000      -0.66690000
H       -3.98900000      -4.52470000       0.23730000
H       -2.29080000      -4.63210000       0.94980000
