11
Properties=species:S:1:pos:R:3 gdb_130882=T pbc="F F F"
O       -0.12990000       0.00470000      -0.00290000
C       -0.02430000       1.19650000       0.00670000
C        1.32620000       1.89640000      -0.00210000
N        2.43180000       1.25750000      -0.01890000
C        3.60640000       2.02760000      -0.02530000
O        4.71380000       1.54980000      -0.04160000
C        3.38490000       3.49540000      -0.01150000
N        2.24770000       4.08590000       0.00520000
O        1.13580000       3.23160000       0.01030000
H       -0.88520000       1.89260000       0.02130000
H        4.24740000       4.15590000      -0.01560000
