14
Properties=species:S:1:pos:R:3 gdb_4364=T pbc="F F F"
N        0.01440000       1.40150000       0.21250000
C       -0.00110000       0.02780000       0.07210000
C       -1.20250000      -0.68060000       0.01630000
C       -1.14210000      -2.06950000      -0.07010000
O       -2.30310000      -2.75910000      -0.12480000
N       -0.01890000      -2.78150000      -0.10730000
C        1.12520000      -2.08570000      -0.05430000
C        1.19920000      -0.70890000       0.03370000
H        0.86030000       1.87170000      -0.06910000
H       -0.82350000       1.89150000      -0.06000000
H       -2.16350000      -0.18040000       0.04180000
H       -2.04550000      -3.68980000      -0.18180000
H        2.03850000      -2.67510000      -0.08700000
H        2.15970000      -0.20760000       0.07680000
