17
Properties=species:S:1:pos:R:3 gdb_13844=T pbc="F F F"
C       -0.02120000       1.50470000       0.03410000
C       -0.01920000      -0.01560000       0.03250000
O       -0.02940000      -0.67480000       1.05890000
N       -0.00530000      -0.62920000      -1.19200000
C       -0.00230000      -2.10150000      -1.30550000
C        0.01510000      -2.37210000      -2.83610000
C        0.01930000      -0.98370000      -3.43720000
C        0.00760000      -0.06330000      -2.47250000
H        0.86790000       1.90770000      -0.46180000
H       -0.90090000       1.90540000      -0.47990000
H       -0.03230000       1.83600000       1.07190000
H        0.87170000      -2.50470000      -0.78800000
H       -0.88670000      -2.50680000      -0.80770000
H        0.89700000      -2.95100000      -3.13430000
H       -0.85790000      -2.95420000      -3.15360000
H        0.03030000      -0.77570000      -4.49710000
H        0.00700000       1.01180000      -2.57390000
