18
Properties=species:S:1:pos:R:3 gdb_82541=T pbc="F F F"
O       -0.15980000       1.41570000       0.12030000
C       -0.11480000       0.01700000       0.08780000
C       -0.43290000      -0.83170000       1.30000000
C       -1.54660000      -0.16590000       2.12250000
C       -2.42690000      -0.17250000       0.85750000
C       -3.87750000      -0.36680000       0.72600000
N       -3.25320000       0.91500000       0.30670000
C       -1.33660000      -0.84250000       0.04900000
O       -1.55840000      -1.85250000      -0.86820000
H       -0.99140000       1.68780000      -0.28480000
H        0.71340000      -0.37520000      -0.50200000
H        0.25230000      -1.58860000       1.65940000
H       -1.93780000      -0.80300000       2.91930000
H       -1.29990000       0.82130000       2.52320000
H       -4.26270000      -0.97550000      -0.08700000
H       -4.48220000      -0.37310000       1.62920000
H       -3.41620000       1.61370000       1.02910000
H       -1.52130000      -1.47520000      -1.75370000
