19
Properties=species:S:1:pos:R:3 gdb_116252=T pbc="F F F"
C       -0.05410000       1.52740000      -0.13200000
N       -0.05670000       0.11240000       0.21830000
C       -1.32550000      -0.55310000       0.05610000
C       -1.90590000      -0.76320000      -1.35990000
O       -2.91660000      -1.73790000      -1.17820000
C       -2.40340000      -2.72710000      -0.29780000
C       -1.33510000      -2.02270000       0.60070000
C       -0.02600000      -2.65870000       0.48290000
N        1.00810000      -3.16230000       0.36300000
H        0.94130000       1.93970000       0.05430000
H       -0.32310000       1.74910000      -1.17840000
H       -0.76060000       2.06260000       0.51270000
H        0.67800000      -0.38430000      -0.27470000
H       -2.07090000       0.00540000       0.63450000
H       -2.37290000       0.12780000      -1.78480000
H       -1.11660000      -1.11370000      -2.04820000
H       -3.23620000      -3.12430000       0.28740000
H       -1.94600000      -3.55180000      -0.85990000
H       -1.62070000      -2.03450000       1.65480000
