16
Properties=species:S:1:pos:R:3 gdb_68663=T pbc="F F F"
C        0.02350000       1.55980000       0.06730000
C        0.00360000       0.05750000      -0.03900000
C        0.70300000      -0.72130000      -1.20760000
C       -0.32520000      -1.86130000      -0.95860000
O        0.09850000      -2.65160000       0.17800000
C        0.46040000      -1.85710000       1.21490000
N        0.43850000      -0.59030000       1.23430000
C       -1.25110000      -0.71610000      -0.46880000
O       -2.41680000      -0.47330000      -0.57150000
H        1.03040000       1.91270000       0.30970000
H       -0.29940000       2.02150000      -0.87020000
H       -0.64920000       1.88660000       0.86520000
H        0.54960000      -0.25000000      -2.18080000
H        1.75370000      -0.97360000      -1.05430000
H       -0.63170000      -2.55100000      -1.74160000
H        0.79260000      -2.44270000       2.06810000
