18
Properties=species:S:1:pos:R:3 gdb_74968=T pbc="F F F"
C       -0.07290000       1.48380000       0.04580000
C       -0.02240000      -0.00640000      -0.01120000
C       -0.04140000      -0.81280000      -1.09090000
C        0.03980000      -2.23920000      -0.61500000
N        1.40450000      -2.47780000      -0.03810000
C        1.47930000      -1.59340000       1.17010000
C        0.09140000      -0.88980000       1.21850000
C       -0.77930000      -2.06480000       0.68430000
O       -1.72220000      -2.63420000       1.14600000
H        0.83540000       1.89630000       0.50260000
H       -0.17830000       1.91660000      -0.95290000
H       -0.91510000       1.82620000       0.65980000
H       -0.09570000      -0.50590000      -2.12770000
H       -0.25380000      -3.02690000      -1.30510000
H        1.45220000      -3.44820000       0.26050000
H        1.65270000      -2.17650000       2.08100000
H        2.29610000      -0.87200000       1.06480000
H       -0.18870000      -0.45580000       2.17640000
