19
Properties=species:S:1:pos:R:3 gdb_107811=T pbc="F F F"
C        0.04450000       1.35340000       0.14480000
O       -0.00210000      -0.03880000      -0.08730000
C       -1.28430000      -0.58630000      -0.10500000
C       -2.11850000      -0.58460000       1.24730000
C       -2.42810000      -2.05430000       0.98980000
C       -2.76100000      -2.33570000      -0.50320000
C       -3.12430000      -1.18860000      -1.38170000
C       -2.24620000      -0.19500000      -1.21320000
C       -1.34000000      -2.14600000      -0.04890000
H        1.09930000       1.63040000       0.20750000
H       -0.42010000       1.92660000      -0.67000000
H       -0.45060000       1.62770000       1.08760000
H       -1.42880000      -0.49790000       2.09150000
H       -2.94080000       0.13100000       1.34960000
H       -2.71270000      -2.77980000       1.74250000
H       -3.12730000      -3.33590000      -0.70380000
H       -4.00630000      -1.16890000      -2.01000000
H       -2.30050000       0.79520000      -1.64740000
H       -0.51300000      -2.83210000      -0.18080000
