17
Properties=species:S:1:pos:R:3 gdb_31528=T pbc="F F F"
C       -0.24200000       1.50260000      -0.20020000
C        0.14890000       0.02380000      -0.03790000
C        0.87130000      -0.52400000      -1.22080000
N        2.09220000      -0.97620000      -1.26920000
C        2.26980000      -1.34940000      -2.58540000
O        3.43470000      -1.87210000      -3.01200000
C        1.14670000      -1.11130000      -3.31070000
N        0.80870000      -1.29840000      -4.63970000
O        0.22600000      -0.56500000      -2.39910000
H        0.64520000       2.12970000      -0.32840000
H       -0.88500000       1.64180000      -1.07350000
H       -0.78370000       1.85390000       0.68260000
H        0.80320000      -0.11120000       0.82680000
H       -0.75400000      -0.57380000       0.13900000
H        4.01490000      -1.90370000      -2.24210000
H        0.60550000      -0.43670000      -5.13450000
H        0.04100000      -1.94660000      -4.77820000
