18
Properties=species:S:1:pos:R:3 gdb_70951=T pbc="F F F"
C        0.14460000       1.56580000      -0.04280000
C        0.04080000       0.06500000      -0.00660000
C        0.57800000      -0.95190000      -1.15450000
C       -0.07960000      -1.77320000      -0.01850000
C        0.65670000      -0.90380000       1.02660000
O       -0.85920000      -2.91030000       0.46710000
C       -1.83080000      -1.95570000       0.89310000
N       -2.81640000      -2.12000000       1.64430000
C       -1.26480000      -0.84420000      -0.00810000
H        1.19080000       1.88090000      -0.12200000
H       -0.40210000       1.98050000      -0.89540000
H       -0.27260000       1.99810000       0.87190000
H        0.05340000      -0.91910000      -2.11070000
H        1.66360000      -0.99940000      -1.27490000
H        1.74610000      -0.97200000       1.05430000
H        0.21780000      -0.88180000       2.02640000
H       -2.88100000      -3.08710000       1.96880000
H       -1.84250000      -0.80230000      -0.93520000
