19
Properties=species:S:1:pos:R:3 gdb_35573=T pbc="F F F"
N       -0.65010000      -0.95610000      -0.89230000
C       -0.41530000       0.10550000      -0.49690000
C       -0.10890000       1.44590000      -0.00180000
C       -0.15800000       1.62480000       1.54540000
C        1.33920000       2.01260000       1.47670000
C        2.37340000       1.00340000       2.01200000
C        2.57820000       0.01310000       0.84770000
C        2.34810000       0.89650000      -0.39710000
N        1.32430000       1.88290000      -0.02310000
H       -0.73950000       2.15130000      -0.55440000
H       -0.83760000       2.40870000       1.88190000
H       -0.37000000       0.70650000       2.09570000
H        1.55490000       3.03180000       1.80950000
H        3.31060000       1.52360000       2.23730000
H        2.03960000       0.52080000       2.93510000
H        3.56590000      -0.45480000       0.85960000
H        1.83460000      -0.78970000       0.88100000
H        3.26400000       1.44140000      -0.65650000
H        2.03830000       0.33250000      -1.28020000
