19
Properties=species:S:1:pos:R:3 gdb_103529=T pbc="F F F"
C       -0.09660000       1.56110000      -0.05480000
C        0.01840000       0.03730000       0.02560000
C        0.77310000      -0.48730000       1.26830000
C        2.21570000       0.03100000       1.35750000
N        0.03370000      -0.14240000       2.50240000
C       -0.29920000      -1.24730000       3.04410000
N        0.09890000      -2.39920000       2.37300000
C        0.78820000      -2.02960000       1.22300000
O        1.27060000      -2.77030000       0.40160000
H        0.87810000       2.03860000      -0.19060000
H       -0.72220000       1.84750000      -0.90570000
H       -0.54900000       1.96370000       0.85520000
H       -0.98690000      -0.40090000       0.03350000
H        0.52600000      -0.36500000      -0.85850000
H        2.22600000       1.11810000       1.45370000
H        2.72290000      -0.38890000       2.23100000
H        2.77110000      -0.26240000       0.46230000
H       -0.85790000      -1.33450000       3.97090000
H       -0.07500000      -3.35200000       2.64990000
