19
Properties=species:S:1:pos:R:3 gdb_126581=T pbc="F F F"
C        0.04750000       1.58330000      -0.12240000
C        0.00930000       0.05690000      -0.01180000
C        0.72860000      -0.46680000       1.23490000
C        0.68510000      -2.00390000       1.34040000
C        1.39360000      -2.52920000       2.54090000
C        0.98760000      -3.21030000       3.64880000
N        2.09870000      -3.41550000       4.43020000
N        3.11980000      -2.92200000       3.89330000
O        2.70760000      -2.32650000       2.64620000
H        1.07830000       1.95060000      -0.17170000
H       -0.47290000       1.92910000      -1.02060000
H       -0.43060000       2.05540000       0.74270000
H       -1.03410000      -0.28530000       0.00010000
H        0.46500000      -0.38850000      -0.90600000
H        1.77490000      -0.14030000       1.22700000
H        0.27580000      -0.03240000       2.13510000
H       -0.35270000      -2.35110000       1.37550000
H        1.13760000      -2.44260000       0.44230000
H        0.01150000      -3.56120000       3.93590000
