16
Properties=species:S:1:pos:R:3 gdb_50138=T pbc="F F F"
N       -0.12210000       1.13660000      -0.57660000
C       -0.05670000      -0.08070000      -0.26890000
N        0.98090000      -1.02640000      -0.05750000
C        0.05940000      -2.16530000       0.16630000
C       -1.08520000      -1.14790000      -0.01840000
C       -2.39470000      -0.98590000       0.64930000
N       -2.30840000      -1.36210000      -0.77070000
C        2.34020000      -0.90090000      -0.10270000
O        2.91260000       0.14080000      -0.33560000
H        0.80850000       1.54000000      -0.68940000
H        0.11070000      -2.93250000      -0.61050000
H        0.14750000      -2.61530000       1.15860000
H       -2.76280000      -1.76890000       1.30640000
H       -2.69170000       0.02600000       0.91090000
H       -2.47870000      -0.55160000      -1.36400000
H        2.86120000      -1.85680000       0.09800000
