20
Properties=species:S:1:pos:R:3 gdb_79745=T pbc="F F F"
C       -0.28460000       1.49950000       0.29920000
C        0.01580000       0.04410000       0.00420000
C        0.57830000      -0.58070000      -1.27800000
C        1.40480000       0.18190000      -2.28460000
N        1.66290000       1.61250000      -1.99550000
C        2.68230000       0.60360000      -1.64580000
C        2.66840000       0.15470000      -0.18690000
C        1.35930000      -0.63590000       0.02030000
O        1.48250000      -1.85710000       0.69860000
H       -1.17860000       1.82520000      -0.24400000
H       -0.48810000       1.62290000       1.37000000
H        0.52810000       2.16070000       0.00830000
H       -0.73680000      -0.62460000       0.42220000
H        0.07410000      -1.47060000      -1.63790000
H        1.35960000      -0.12970000      -3.32270000
H        1.93930000       2.07940000      -2.85590000
H        3.62440000       0.61600000      -2.18490000
H        3.49190000      -0.54280000      -0.00710000
H        2.78450000       0.99700000       0.50360000
H        1.35160000      -1.68970000       1.63790000
