17
Properties=species:S:1:pos:R:3 gdb_37376=T pbc="F F F"
C       -0.02220000       1.54220000       0.10560000
C        1.28830000       0.80100000      -0.04210000
C       -0.02170000       0.04270000      -0.02920000
C       -0.26470000      -0.59930000      -1.38650000
O       -0.23590000       0.37650000      -2.41940000
C        1.14230000       0.60540000      -2.63050000
C        1.84440000      -0.61640000      -2.12920000
O        0.83250000      -1.47700000      -1.65800000
C        1.98640000       0.70650000      -1.36850000
H       -0.24950000       1.94660000       1.08560000
H       -0.38420000       2.12810000      -0.72980000
H        1.92910000       0.73710000       0.83160000
H       -0.27930000      -0.57200000       0.82620000
H       -1.19350000      -1.16740000      -1.46010000
H        1.34940000       1.14830000      -3.54280000
H        2.66480000      -1.13700000      -2.60380000
H        2.93790000       1.21760000      -1.47770000
