14
Properties=species:S:1:pos:R:3 gdb_4443=T pbc="F F F"
N        0.15010000       1.44100000       0.08040000
C        0.01150000       0.05270000       0.00370000
C       -1.09240000      -0.72640000       0.01560000
N       -2.43230000      -0.31240000       0.00960000
N       -0.63370000      -2.07180000      -0.01280000
C        0.74760000      -2.12890000       0.00500000
O        1.47340000      -3.10270000       0.05370000
N        1.12530000      -0.78350000      -0.04390000
H        0.63770000       1.82560000      -0.72420000
H       -0.77160000       1.86220000       0.12940000
H       -2.94460000      -0.59140000       0.84100000
H       -2.94800000      -0.63890000      -0.80230000
H       -1.19480000      -2.89150000       0.13850000
H        2.07200000      -0.49840000       0.13920000
