25
Properties=species:S:1:pos:R:3 gdb_118496=T pbc="F F F"
C        0.30190000       1.23160000       0.87390000
C        0.12540000      -0.27690000       0.82050000
O       -1.07970000      -0.55900000       0.13070000
C       -1.37300000      -1.94360000      -0.04960000
C       -2.81650000      -2.19650000       0.40300000
C       -3.04970000      -1.89770000       1.88490000
C       -1.16610000      -2.35600000      -1.50000000
C       -1.60230000      -1.44910000      -2.62200000
C       -0.13400000      -1.70310000      -2.38170000
H        1.21960000       1.48960000       1.41100000
H        0.36100000       1.64860000      -0.13560000
H       -0.54410000       1.69910000       1.38620000
H        0.98310000      -0.74560000       0.31330000
H        0.08520000      -0.69480000       1.83940000
H       -0.69900000      -2.53900000       0.58720000
H       -3.47780000      -1.57760000      -0.21470000
H       -3.06950000      -3.24120000       0.18260000
H       -4.09440000      -2.06600000       2.16360000
H       -2.42880000      -2.53680000       2.52360000
H       -2.80300000      -0.85610000       2.10820000
H       -1.31930000      -3.42040000      -1.66070000
H       -2.07360000      -1.88900000      -3.49370000
H       -1.97700000      -0.47060000      -2.34410000
H        0.44330000      -0.88310000      -1.97180000
H        0.40790000      -2.32860000      -3.08270000
