17
Properties=species:S:1:pos:R:3 gdb_22338=T pbc="F F F"
C       -0.35040000       1.37620000       0.43680000
N        0.10280000       0.05700000      -0.00460000
C       -1.01770000      -0.82710000      -0.35060000
C       -1.41760000      -1.56180000       0.94150000
O       -2.44990000      -2.14380000       1.15490000
C       -0.22510000      -1.39740000       1.85150000
C        0.83580000      -0.66370000       1.05560000
N       -0.04000000      -1.75010000       3.06570000
O       -1.12320000      -2.39180000       3.63370000
H        0.51980000       1.99360000       0.67740000
H       -0.89120000       1.86230000      -0.38020000
H       -1.01200000       1.35880000       1.32170000
H       -1.86100000      -0.28250000      -0.77940000
H       -0.69680000      -1.57820000      -1.08730000
H        1.52510000      -1.38220000       0.59010000
H        1.43020000       0.01890000       1.66500000
H       -0.81160000      -2.56830000       4.52940000
