15
Properties=species:S:1:pos:R:3 gdb_125139=T pbc="F F F"
C       -0.00330000       1.54490000       0.11380000
C        0.02140000       0.05370000       0.01100000
C        0.01360000      -0.73970000      -1.10060000
O        0.04390000      -2.04580000      -0.74450000
N        0.07280000      -2.14070000       0.63700000
C        0.05910000      -0.90330000       1.06720000
C       -0.02030000      -0.41580000      -2.55020000
N       -0.01620000      -1.49930000      -3.37070000
O       -0.04860000       0.73650000      -2.94760000
H        0.87950000       1.91480000       0.64670000
H       -0.02550000       1.98750000      -0.88150000
H       -0.88320000       1.88380000       0.67160000
H        0.07690000      -0.72100000       2.13310000
H        0.00720000      -2.43690000      -3.00840000
H       -0.03850000      -1.34390000      -4.36430000
