20
Properties=species:S:1:pos:R:3 gdb_64075=T pbc="F F F"
C        0.06130000       1.54200000      -0.01370000
C       -0.06010000       0.00860000       0.00020000
C       -1.55040000      -0.39630000       0.04650000
C        0.62250000      -0.56190000      -1.25910000
N        0.82720000      -1.99920000      -1.14530000
C        1.37650000      -2.56850000      -0.01950000
O        1.83750000      -3.69700000      -0.01180000
C        1.30330000      -1.71770000       1.19660000
C        0.63970000      -0.55990000       1.21730000
H        1.10860000       1.86040000      -0.00080000
H       -0.41040000       1.96100000      -0.90930000
H       -0.43520000       1.97880000       0.85880000
H       -2.10060000       0.07480000      -0.77600000
H       -1.66110000      -1.48020000      -0.03800000
H       -2.01300000      -0.07780000       0.98600000
H        0.00030000      -0.36860000      -2.13890000
H        1.57950000      -0.03810000      -1.41280000
H        0.98620000      -2.52940000      -1.98980000
H        1.77840000      -2.13660000       2.07620000
H        0.54770000       0.00350000       2.14440000
