20
Properties=species:S:1:pos:R:3 gdb_59882=T pbc="F F F"
C        0.38910000       1.57960000      -0.25760000
C       -0.07880000       0.14720000       0.02830000
C        0.28190000      -0.30450000       1.44720000
N       -1.51430000       0.01180000      -0.19680000
C       -2.04540000      -0.63580000      -1.26400000
O       -1.41190000      -1.20470000      -2.13670000
C       -3.55770000      -0.63450000      -1.29070000
C       -4.32850000      -1.26570000      -0.20650000
O       -4.24030000       0.15610000      -0.31100000
H        1.47220000       1.66480000      -0.12460000
H        0.14440000       1.86900000      -1.28300000
H       -0.08900000       2.29350000       0.42370000
H        0.38260000      -0.52840000      -0.69730000
H       -0.20210000       0.33190000       2.19800000
H       -0.03350000      -1.33700000       1.62110000
H        1.36250000      -0.24240000       1.60770000
H       -2.16320000       0.52400000       0.38460000
H       -3.97850000      -0.61550000      -2.29310000
H       -5.30710000      -1.68920000      -0.42330000
H       -3.79730000      -1.70610000       0.63510000
