15
Properties=species:S:1:pos:R:3 gdb_25079=T pbc="F F F"
N       -0.09270000       1.31200000       0.00950000
C       -0.03300000       0.04630000       0.00330000
O        1.10000000      -0.75430000      -0.00720000
C        0.70940000      -2.09370000      -0.01250000
C       -0.62480000      -2.16270000      -0.00460000
C       -1.82670000      -3.07140000      -0.00530000
C       -2.96520000      -2.05180000       0.00320000
C       -2.48030000      -0.80300000       0.00920000
N       -1.08530000      -0.83930000       0.00590000
H        0.83930000       1.71740000       0.00540000
H        1.50010000      -2.82180000      -0.02140000
H       -1.85860000      -3.72370000      -0.88720000
H       -1.85360000      -3.73180000       0.87080000
H       -4.01030000      -2.32060000       0.00480000
H       -2.98650000       0.14990000       0.01620000
