21
Properties=species:S:1:pos:R:3 gdb_120230=T pbc="F F F"
C        0.04350000       1.58710000       0.00130000
C       -0.03280000       0.06150000      -0.09320000
C       -1.44720000      -0.48220000       0.15440000
C       -1.52050000      -2.00140000       0.01620000
C       -2.86430000      -2.75180000       0.12010000
C       -3.75480000      -2.40220000      -1.01820000
C       -2.64350000      -3.42000000      -1.26050000
C       -1.33760000      -2.69020000      -1.36940000
O       -0.42350000      -2.72880000      -2.14580000
H        1.06310000       1.94590000      -0.17000000
H       -0.60510000       2.06330000      -0.74260000
H       -0.27290000       1.94100000       0.98920000
H        0.31190000      -0.27360000      -1.07790000
H        0.65560000      -0.38680000       0.63560000
H       -1.78300000      -0.19640000       1.16080000
H       -2.14590000      -0.00610000      -0.54510000
H       -0.78060000      -2.46610000       0.68250000
H       -3.22860000      -3.24130000       1.01390000
H       -4.74760000      -2.84020000      -1.00430000
H       -3.71340000      -1.42450000      -1.48800000
H       -2.86360000      -4.42190000      -1.60680000
