24
Properties=species:S:1:pos:R:3 gdb_10727=T pbc="F F F"
C        0.48180000      -0.75930000       1.35000000
C        0.24180000       0.11360000       0.11310000
C        0.88830000      -0.33340000      -1.19840000
C        2.24040000      -1.00800000      -1.18350000
C        1.00120000      -1.80550000      -1.52070000
C        0.62630000       0.58330000      -2.40310000
C       -0.86190000       0.65610000      -2.78020000
C        1.21950000       1.98900000      -2.21880000
H        0.10230000      -1.77720000       1.21790000
H        1.54280000      -0.82550000       1.60950000
H       -0.03650000      -0.33030000       2.21320000
H       -0.84140000       0.19370000      -0.04300000
H        0.58580000       1.13020000       0.34170000
H        2.93220000      -0.77390000      -1.98650000
H        2.72510000      -1.20560000      -0.23430000
H        0.65780000      -2.53550000      -0.79660000
H        0.85430000      -2.11110000      -2.55190000
H        1.15060000       0.12220000      -3.25160000
H       -0.99580000       1.19930000      -3.72160000
H       -1.28910000      -0.34430000      -2.90380000
H       -1.44810000       1.17980000      -2.01770000
H        2.27760000       1.93980000      -1.94240000
H        1.13890000       2.56690000      -3.14550000
H        0.69460000       2.55180000      -1.43950000
