17
Properties=species:S:1:pos:R:3 gdb_44683=T pbc="F F F"
O       -0.05930000       0.03710000      -0.34110000
C       -0.03200000       1.19990000      -0.08150000
C       -1.09930000       2.25420000       0.29390000
N        0.00420000       3.24020000       0.38770000
C        0.19100000       4.07440000       1.47540000
N        1.29620000       4.33890000       2.05260000
C        2.46630000       3.58010000       1.61260000
C        2.12690000       2.15230000       1.14240000
C        1.07500000       2.26490000       0.04010000
H       -1.83300000       2.46660000      -0.49120000
H       -1.62490000       2.04700000       1.23370000
H       -0.72170000       4.56650000       1.81700000
H        2.97680000       4.12650000       0.80620000
H        3.17110000       3.53640000       2.44910000
H        3.01350000       1.62720000       0.77830000
H        1.72770000       1.58420000       1.99020000
H        1.54250000       2.49970000      -0.92450000
