19
Properties=species:S:1:pos:R:3 gdb_82766=T pbc="F F F"
C        0.06350000       1.58940000      -0.00430000
C        0.02910000       0.06410000      -0.01430000
C        0.92140000      -0.57530000      -1.10570000
O        2.25030000      -0.15200000      -0.66610000
C        2.03630000      -1.10140000       0.40300000
C        1.22180000      -2.00880000      -0.54350000
C        0.15580000      -2.68110000       0.30980000
O        0.07980000      -1.86180000       1.49230000
C        0.75220000      -0.64670000       1.17310000
H        1.09320000       1.95260000       0.02790000
H       -0.41340000       2.00010000      -0.90130000
H       -0.47150000       1.98340000       0.86600000
H       -1.00500000      -0.29170000      -0.06170000
H        0.71710000      -0.37100000      -2.15730000
H        2.92800000      -1.39160000       0.95590000
H        1.79570000      -2.63950000      -1.21970000
H       -0.82400000      -2.73750000      -0.18420000
H        0.44360000      -3.69560000       0.60740000
H        0.87440000      -0.06800000       2.08790000
