16
Properties=species:S:1:pos:R:3 gdb_13923=T pbc="F F F"
O        0.03520000       0.01820000      -0.31790000
C       -0.00770000       1.18860000      -0.08790000
C       -1.07560000       2.20440000       0.33990000
O       -0.06760000       3.23720000       0.31130000
C        0.99060000       2.34720000      -0.09070000
C        2.29670000       2.23600000       0.73030000
C        3.05450000       2.02150000      -0.60910000
C        1.83470000       2.62900000      -1.35570000
H       -1.88390000       2.37160000      -0.38250000
H       -1.50310000       2.04750000       1.33780000
H        2.52570000       3.20500000       1.18260000
H        2.34940000       1.45710000       1.49420000
H        4.01400000       2.52700000      -0.72630000
H        3.17990000       0.96090000      -0.83670000
H        1.51080000       2.17050000      -2.29260000
H        1.93290000       3.70930000      -1.49440000
