17
Properties=species:S:1:pos:R:3 gdb_70178=T pbc="F F F"
C        0.09630000       1.56740000      -0.04680000
C        0.05820000       0.06020000       0.01230000
O       -0.77230000      -0.49120000       1.06560000
C        0.63760000      -0.68140000       1.15100000
C        1.15250000      -2.08780000       0.97230000
C        0.65570000      -2.81030000      -0.28120000
O        0.68520000      -4.02120000      -0.35740000
C        0.20580000      -1.97140000      -1.41250000
C       -0.04270000      -0.66230000      -1.28620000
H        0.95600000       1.91350000      -0.63040000
H       -0.81140000       1.95580000      -0.52130000
H        0.16300000       1.98910000       0.95840000
H        1.11840000      -0.10200000       1.94090000
H        2.24900000      -2.05820000       0.90760000
H        0.91300000      -2.70880000       1.84120000
H        0.07190000      -2.49140000      -2.35560000
H       -0.35780000      -0.07900000      -2.14840000
