17
Properties=species:S:1:pos:R:3 gdb_68066=T pbc="F F F"
O       -0.07400000       1.32220000       0.00140000
C        0.05230000      -0.04770000       0.00450000
C        0.64190000      -0.97570000      -1.10500000
C        0.07390000      -1.90120000       0.01780000
O       -0.02040000      -3.27370000       0.03430000
C        0.75210000      -0.95890000       1.06410000
C       -1.19580000      -0.98910000       0.03140000
C       -2.14020000      -0.99130000       1.19870000
O       -3.33890000      -1.00640000       1.06290000
H        0.80490000       1.71440000      -0.04580000
H        0.11950000      -0.98870000      -2.06370000
H        1.73020000      -0.96390000      -1.22120000
H        0.86750000      -3.64580000      -0.00520000
H        1.84650000      -0.94630000       1.05450000
H        0.36650000      -0.95620000       2.08260000
H       -1.78010000      -1.00250000      -0.89220000
H       -1.69150000      -0.97830000       2.21400000
