14
Properties=species:S:1:pos:R:3 gdb_359=T pbc="F F F"
C       -0.00940000       1.51520000       0.10050000
C       -0.02930000       0.00150000      -0.10060000
C        0.70210000      -0.44650000      -1.36150000
O        1.07870000       0.32460000      -2.20760000
C        0.92370000      -1.95370000      -1.47770000
O        1.47280000      -2.26060000      -2.73160000
H        1.01400000       1.88010000       0.22280000
H       -0.43340000       2.02450000      -0.76780000
H       -0.58400000       1.79600000       0.98730000
H        0.39870000      -0.52420000       0.76360000
H       -1.06270000      -0.36670000      -0.17640000
H        1.58230000      -2.24860000      -0.64100000
H       -0.04370000      -2.45510000      -1.29930000
H        1.62540000      -3.20930000      -2.76570000
