21
Properties=species:S:1:pos:R:3 gdb_57630=T pbc="F F F"
C       -0.25540000       1.51770000      -0.24530000
C       -0.03120000       0.01220000       0.04150000
C        0.87560000      -0.16410000       1.27680000
N       -1.26520000      -0.77860000       0.20900000
C       -2.10530000      -0.48980000       1.34150000
C       -3.10820000       0.65150000       1.39910000
C       -3.57240000      -0.78020000       1.24490000
C        0.66220000      -0.57390000      -1.12730000
N        1.20000000      -1.00460000      -2.05470000
H        0.69730000       2.02660000      -0.41820000
H       -0.87970000       1.65440000      -1.13290000
H       -0.75070000       1.98460000       0.60840000
H        0.42590000       0.32680000       2.14340000
H        1.01320000      -1.22440000       1.49900000
H        1.85230000       0.29080000       1.09770000
H       -1.80110000      -0.76940000      -0.65150000
H       -1.63830000      -0.75570000       2.28490000
H       -3.27440000       1.15300000       2.34710000
H       -3.19640000       1.29560000       0.53120000
H       -3.96250000      -1.07820000       0.27630000
H       -4.05830000      -1.27020000       2.08080000
