17
Properties=species:S:1:pos:R:3 gdb_121068=T pbc="F F F"
C       -0.58820000       1.38880000       0.52370000
O       -0.56720000      -0.02090000       0.59380000
C       -0.59940000      -0.63910000      -0.66930000
C       -0.58990000      -2.14460000      -0.42290000
C       -1.86800000      -2.66440000       0.25490000
O       -2.62410000      -3.20140000      -0.83550000
C       -1.82310000      -3.36280000      -1.91810000
O       -2.14520000      -3.89090000      -2.93260000
O       -0.59220000      -2.83050000      -1.67930000
H       -0.56620000       1.76470000       1.54880000
H        0.28510000       1.77960000      -0.01980000
H       -1.49850000       1.75600000       0.02630000
H       -1.50750000      -0.35910000      -1.23040000
H        0.27100000      -0.35850000      -1.28230000
H        0.31350000      -2.42290000       0.12400000
H       -1.66980000      -3.46080000       0.97850000
H       -2.43860000      -1.86850000       0.73530000
