17
Properties=species:S:1:pos:R:3 gdb_88253=T pbc="F F F"
C        0.28590000       1.46990000      -0.49120000
C        0.06060000       0.03610000      -0.09500000
O        1.21200000      -0.78010000       0.10400000
C        0.38760000      -0.49580000       1.24950000
C        0.94930000       0.32080000       2.29120000
C        1.39950000       0.99570000       3.18220000
C        1.95430000       1.75730000       4.29030000
C        2.30510000       0.87180000       5.49050000
O        2.14460000       1.20870000       6.63100000
H        1.05740000       1.92920000       0.13010000
H        0.59870000       1.52700000      -1.53870000
H       -0.64100000       2.04320000      -0.38390000
H       -0.74960000      -0.47350000      -0.62110000
H       -0.18270000      -1.35570000       1.60100000
H        2.88910000       2.24690000       3.97610000
H        1.28050000       2.54890000       4.63390000
H        2.73970000      -0.11420000       5.21890000
