18
Properties=species:S:1:pos:R:3 gdb_49426=T pbc="F F F"
O       -0.56230000       0.67780000      -0.61560000
C        0.13150000       1.03510000       0.30260000
C        1.30890000       1.97900000       0.17220000
C        1.33310000       2.93410000      -1.03530000
C        0.18110000       3.89230000      -0.65630000
C        0.65110000       4.16260000       0.76870000
C        2.13940000       4.09280000       0.76620000
C        2.57540000       3.77410000      -0.66230000
N        1.34320000       2.95190000       1.29650000
H       -0.03590000       0.66680000       1.33890000
H        2.21310000       1.35410000       0.22840000
H        1.30160000       2.48570000      -2.02470000
H        0.17130000       4.79980000      -1.26790000
H       -0.80250000       3.42080000      -0.71040000
H        0.08100000       4.74500000       1.48160000
H        2.76760000       4.62140000       1.47270000
H        3.50920000       3.20500000      -0.70840000
H        2.68430000       4.67370000      -1.27610000
