18
Properties=species:S:1:pos:R:3 gdb_74604=T pbc="F F F"
C       -0.11250000       1.47880000      -0.00190000
C        0.00720000      -0.00510000      -0.02090000
C       -0.04600000      -0.88440000      -1.03950000
C        0.14400000      -2.30390000      -0.44740000
C       -0.62420000      -2.23420000       0.89300000
N        0.46660000      -2.79340000       1.84100000
C        0.44910000      -1.44990000       2.59600000
C        0.23090000      -0.96640000       1.14980000
C        1.19150000      -2.08470000       0.66900000
H        0.78920000       1.94700000       0.41310000
H       -0.27110000       1.88010000      -1.00690000
H       -0.94860000       1.80400000       0.63020000
H       -0.19360000      -0.66450000      -2.08860000
H        0.13210000      -3.16410000      -1.11760000
H       -1.68720000      -2.37600000       1.10380000
H       -0.38230000      -1.36010000       3.30210000
H        1.40080000      -1.21320000       3.08210000
H        2.28240000      -2.04910000       0.61410000
