21
Properties=species:S:1:pos:R:3 gdb_66210=T pbc="F F F"
C       -0.06180000       1.75180000      -0.19400000
C       -0.02880000       0.21390000      -0.06950000
C        0.73390000      -0.41980000      -1.26470000
C        2.21560000      -0.01560000      -1.28690000
C        2.84070000      -0.10210000       0.07980000
C        2.12890000      -0.20630000       1.20130000
C        0.62400000      -0.23370000       1.25030000
C       -1.46590000      -0.27530000      -0.16270000
O       -2.01600000      -1.00830000       0.61820000
H        0.94580000       2.16810000      -0.12140000
H       -0.49140000       2.06550000      -1.15190000
H       -0.66220000       2.19530000       0.60720000
H        0.66560000      -1.51080000      -1.17600000
H        0.25100000      -0.14650000      -2.21040000
H        2.75560000      -0.66530000      -1.98690000
H        2.33370000       1.00090000      -1.68950000
H        3.92650000      -0.07560000       0.12870000
H        2.64190000      -0.28120000       2.15740000
H        0.26910000       0.40410000       2.06990000
H        0.26870000      -1.24050000       1.50470000
H       -2.00650000       0.10350000      -1.06350000
