24
Properties=species:S:1:pos:R:3 gdb_122994=T pbc="F F F"
C       -0.30360000       1.55250000       0.55050000
C       -0.40270000       0.12580000       1.09580000
C        0.91200000      -0.63260000       0.97900000
O        0.73860000      -1.93250000       1.50670000
C        1.89440000      -2.73660000       1.43310000
C        1.59860000      -4.11660000       1.99380000
C        2.74810000      -5.09050000       1.85740000
C        0.64320000      -4.23460000       3.12210000
N        0.26000000      -4.68110000       1.76310000
H       -0.03170000       1.55710000      -0.51080000
H       -1.25780000       2.07730000       0.65010000
H        0.45280000       2.13430000       1.08870000
H       -0.70280000       0.14160000       2.14990000
H       -1.17680000      -0.43390000       0.55840000
H        1.23150000      -0.69090000      -0.07580000
H        1.71060000      -0.10420000       1.52750000
H        2.22610000      -2.82940000       0.38350000
H        2.72550000      -2.27420000       1.99310000
H        3.62810000      -4.74710000       2.41370000
H        2.45700000      -6.07090000       2.24080000
H        3.03780000      -5.21370000       0.80730000
H        0.76480000      -5.03310000       3.84950000
H        0.19230000      -3.32370000       3.50220000
H       -0.32190000      -3.95340000       1.35200000
