23
Properties=species:S:1:pos:R:3 gdb_59559=T pbc="F F F"
C       -0.05820000       1.49830000       0.11040000
C        0.04440000      -0.02280000      -0.06920000
C        0.82030000      -0.37990000      -1.34480000
C        0.69880000      -0.65690000       1.16120000
O       -0.01840000      -0.31220000       2.37920000
C       -0.25700000      -1.60200000       2.96590000
C        1.09790000      -2.33020000       2.79350000
C        0.68860000      -2.19300000       1.29080000
C       -0.77460000      -2.44960000       1.77990000
H        0.93860000       1.95140000       0.17700000
H       -0.57560000       1.95780000      -0.73800000
H       -0.60160000       1.74370000       1.02550000
H       -0.97350000      -0.42270000      -0.15800000
H        1.86110000      -0.03990000      -1.28030000
H        0.83180000      -1.45800000      -1.53230000
H        0.37050000       0.10390000      -2.21760000
H        1.72680000      -0.27040000       1.24200000
H       -0.77930000      -1.48280000       3.91400000
H        1.99360000      -1.80630000       3.13640000
H        1.08780000      -3.36340000       3.14470000
H        1.16030000      -2.77450000       0.50060000
H       -0.94620000      -3.49580000       2.03880000
H       -1.60990000      -2.05090000       1.20150000
