21
Properties=species:S:1:pos:R:3 gdb_121794=T pbc="F F F"
C        0.10550000       1.53570000       0.07660000
C       -0.02410000       0.00030000       0.08480000
C        0.72860000      -0.61440000       1.28240000
O       -1.40310000      -0.40860000       0.07040000
C       -2.25420000       0.04490000       1.11360000
C       -3.53550000      -0.76680000       0.97330000
O       -3.28260000      -2.15110000       1.09340000
C        0.53480000      -0.54060000      -1.16230000
C        1.02550000      -0.97060000      -2.17060000
H        1.15250000       1.82100000      -0.05140000
H       -0.47340000       1.95780000      -0.74840000
H       -0.25060000       1.96210000       1.01870000
H        0.38160000      -0.18890000       2.22790000
H        0.57830000      -1.69620000       1.30340000
H        1.79900000      -0.41300000       1.19340000
H       -1.81230000      -0.14140000       2.10150000
H       -2.47020000       1.11920000       1.02200000
H       -4.23460000      -0.49150000       1.77000000
H       -4.00770000      -0.52400000       0.00810000
H       -2.55630000      -2.33140000       0.48420000
H        1.44940000      -1.35400000      -3.06590000
