22
Properties=species:S:1:pos:R:3 gdb_104006=T pbc="F F F"
C        0.07950000       1.37070000       0.15600000
O       -0.08480000      -0.01430000      -0.06120000
C        0.60010000      -0.55060000      -1.18220000
C        0.10620000       0.04140000      -2.49880000
C        2.15530000      -0.64950000      -1.08570000
N        2.12000000      -2.15100000      -1.14800000
C        1.34460000      -2.54920000       0.04470000
C        0.59350000      -2.08660000      -1.13900000
C       -0.27570000      -2.99000000      -1.96380000
H        1.14020000       1.66240000       0.17980000
H       -0.42900000       1.98310000      -0.60170000
H       -0.36280000       1.59170000       1.13070000
H        0.35620000       1.10390000      -2.57350000
H        0.57340000      -0.46520000      -3.34770000
H       -0.97990000      -0.06440000      -2.58440000
H        2.68210000      -0.24320000      -1.95200000
H        2.60870000      -0.26040000      -0.16800000
H        1.36510000      -3.61980000       0.22560000
H        1.38980000      -1.93070000       0.93700000
H       -1.29840000      -3.00740000      -1.56960000
H       -0.32240000      -2.67410000      -3.01050000
H        0.11290000      -4.01210000      -1.93960000
