18
Properties=species:S:1:pos:R:3 gdb_8504=T pbc="F F F"
C        0.01840000       1.43480000      -0.07320000
C        0.00880000      -0.06160000      -0.04460000
N        0.59740000      -0.93590000      -1.11740000
C        0.05860000      -1.92140000      -0.11830000
C        0.15750000      -3.40770000      -0.28090000
C        0.50580000      -1.01730000       1.08120000
N       -0.82480000      -0.99440000       1.77180000
C       -1.16740000      -1.03280000       0.31250000
H        1.04000000       1.81210000      -0.18240000
H       -0.57720000       1.81970000      -0.90830000
H       -0.40400000       1.82430000       0.85790000
H       -0.00090000      -0.91760000      -1.94970000
H        1.19950000      -3.71120000      -0.42230000
H       -0.23350000      -3.92000000       0.60550000
H       -0.41790000      -3.75170000      -1.14750000
H        1.46370000      -1.00230000       1.60300000
H       -1.01340000      -1.90300000       2.20430000
H       -2.19260000      -1.03570000      -0.06780000
