25
Properties=species:S:1:pos:R:3 gdb_113072=T pbc="F F F"
C        0.14760000       1.58020000       0.11710000
C       -0.08580000       0.07110000      -0.01050000
C        0.64620000      -0.54730000      -1.19440000
C        2.20110000      -0.59990000      -1.19150000
C        2.11610000      -2.01500000      -1.83400000
C        3.10010000      -3.09840000      -1.41180000
C        4.53820000      -2.78650000      -1.83860000
C        0.64030000      -2.10190000      -1.35740000
O        0.58300000      -2.80480000      -0.12590000
H        1.21260000       1.80560000       0.23590000
H       -0.20520000       2.11260000      -0.77320000
H       -0.37860000       1.99330000       0.98330000
H        0.24000000      -0.43160000       0.90810000
H       -1.16450000      -0.12080000      -0.10610000
H        0.29260000      -0.09370000      -2.12880000
H        2.73950000       0.17870000      -1.73680000
H        2.59510000      -0.65130000      -0.17080000
H        2.11960000      -1.91780000      -2.92670000
H        3.04820000      -3.22290000      -0.32540000
H        2.78770000      -4.05830000      -1.84320000
H        4.62030000      -2.69600000      -2.92790000
H        4.88650000      -1.84340000      -1.40320000
H        5.22750000      -3.57380000      -1.51760000
H       -0.08560000      -2.51850000      -2.07010000
H       -0.30640000      -2.70930000       0.22870000
