17
Properties=species:S:1:pos:R:3 gdb_14446=T pbc="F F F"
O       -0.11490000       1.39350000      -0.03290000
C        0.04770000       0.02170000      -0.02130000
C        0.85330000      -0.79650000      -1.02030000
N       -0.13410000      -1.93090000      -0.85160000
C        0.38030000      -2.88580000       0.15230000
C        0.58800000      -2.07770000       1.47080000
C       -0.26220000      -0.83980000       1.20800000
C       -1.03150000      -1.01830000      -0.08090000
H        0.56990000       1.78550000       0.52010000
H        0.79570000      -0.39020000      -2.03420000
H        1.89540000      -1.04710000      -0.78600000
H       -0.37450000      -3.66570000       0.29700000
H        1.29190000      -3.36380000      -0.21680000
H        0.23880000      -2.62590000       2.35140000
H        1.64240000      -1.83390000       1.63960000
H       -0.73900000      -0.30150000       2.01980000
H       -2.10200000      -0.97500000      -0.23200000
