18
Properties=species:S:1:pos:R:3 gdb_128105=T pbc="F F F"
C       -0.31390000       1.41010000       0.05210000
N        0.12290000       0.01150000       0.08380000
C        0.73280000      -0.46860000      -1.09710000
C        0.15190000      -1.20810000      -2.08410000
C       -1.22910000      -1.72870000      -2.24500000
O        1.04990000      -1.48790000      -3.04060000
N        2.29580000      -0.92760000      -2.69400000
C        2.09140000      -0.33130000      -1.54320000
N        3.12750000       0.26180000      -0.83500000
H        0.48800000       2.13700000      -0.16220000
H       -1.08090000       1.53200000      -0.71800000
H       -0.75910000       1.66790000       1.01760000
H        0.72130000      -0.15310000       0.88560000
H       -1.75590000      -1.22850000      -3.06530000
H       -1.21720000      -2.80050000      -2.46610000
H       -1.78110000      -1.55970000      -1.31780000
H        3.96670000       0.35940000      -1.39250000
H        2.87380000       1.14060000      -0.40420000
