19
Properties=species:S:1:pos:R:3 gdb_86215=T pbc="F F F"
O       -0.10000000       1.44540000      -0.01730000
C        0.01100000       0.02410000      -0.02960000
C       -1.40100000      -0.54820000       0.07980000
C       -1.40490000      -2.05490000      -0.20580000
O       -2.68150000      -2.62820000      -0.01810000
C       -0.90330000      -2.34100000      -1.63470000
O       -1.97000000      -2.11930000      -2.57750000
C        0.30900000      -1.52510000      -1.98880000
C        0.70200000      -0.46530000      -1.28120000
H        0.78610000       1.81770000       0.03770000
H        0.59820000      -0.30960000       0.84460000
H       -1.81950000      -0.35450000       1.07030000
H       -2.03860000      -0.02810000      -0.64630000
H       -0.72650000      -2.55290000       0.50010000
H       -3.13020000      -2.52810000      -0.86980000
H       -0.68950000      -3.41170000      -1.72390000
H       -1.98160000      -1.17730000      -2.78170000
H        0.84820000      -1.82010000      -2.88550000
H        1.57980000       0.09940000      -1.59300000
