18
Properties=species:S:1:pos:R:3 gdb_52105=T pbc="F F F"
N       -0.42050000       1.06760000      -0.35780000
C       -0.60700000      -0.17270000      -0.49070000
O       -0.40140000      -0.99390000       0.56520000
C       -0.70200000      -2.37600000       0.35970000
C       -2.16940000      -2.64750000       0.42000000
C       -3.13530000      -2.54420000       1.61270000
C       -4.01150000      -3.65820000       0.93670000
C       -3.00190000      -3.68520000      -0.21930000
O       -2.94370000      -2.35880000      -0.75880000
H       -0.60050000       1.53880000      -1.24210000
H       -0.92780000      -0.69760000      -1.39850000
H       -0.30370000      -2.72350000      -0.60200000
H       -0.18110000      -2.90280000       1.16370000
H       -2.69270000      -2.87280000       2.55570000
H       -3.59320000      -1.56270000       1.74580000
H       -4.03010000      -4.58520000       1.51420000
H       -5.02900000      -3.38460000       0.64990000
H       -2.73670000      -4.49880000      -0.88570000
