18
Properties=species:S:1:pos:R:3 gdb_275=T pbc="F F F"
C        0.02190000       1.56860000      -0.00910000
C        0.00120000       0.03810000      -0.00340000
C       -1.41410000      -0.54560000       0.04560000
C       -1.44860000      -2.07800000      -0.02200000
C       -2.86620000      -2.63660000       0.10590000
O       -0.81090000      -2.56520000      -1.20320000
H        1.04600000       1.95360000      -0.04020000
H       -0.50970000       1.96960000      -0.87980000
H       -0.46010000       1.97780000       0.88610000
H        0.50930000      -0.35070000      -0.89220000
H        0.57140000      -0.33360000       0.85840000
H       -1.92280000      -0.21790000       0.96240000
H       -2.00970000      -0.14490000      -0.78980000
H       -0.83400000      -2.47850000       0.79490000
H       -3.51030000      -2.24680000      -0.69290000
H       -2.85340000      -3.72730000       0.03130000
H       -3.31970000      -2.35750000       1.06260000
H       -1.33910000      -2.27510000      -1.95570000
