23
Properties=species:S:1:pos:R:3 gdb_103124=T pbc="F F F"
C       -0.01540000      -0.47250000       1.03410000
C        0.44520000      -1.73670000       0.29600000
C        0.91650000      -1.49530000      -1.13500000
C        2.18040000      -0.65630000      -1.23710000
C        0.71640000      -2.53700000      -2.19590000
C        0.10580000      -3.90660000      -1.97610000
C       -0.11450000      -1.24640000      -2.25540000
C       -1.56940000      -1.24030000      -2.00320000
O       -2.34320000      -0.49320000      -2.55710000
H        0.78920000       0.26280000       1.12690000
H       -0.84800000       0.01140000       0.51290000
H       -0.35250000      -0.71980000       2.04530000
H        1.27610000      -2.19640000       0.84810000
H       -0.36460000      -2.47080000       0.31800000
H        2.99910000      -1.12610000      -0.67860000
H        2.50340000      -0.54980000      -2.27690000
H        2.03420000       0.34990000      -0.83250000
H        1.49820000      -2.55260000      -2.95250000
H       -0.68170000      -3.91760000      -1.22050000
H       -0.32950000      -4.28540000      -2.90680000
H        0.87600000      -4.61740000      -1.65740000
H        0.16870000      -0.52060000      -3.01160000
H       -1.94080000      -1.97670000      -1.25760000
