22
Properties=species:S:1:pos:R:3 gdb_97404=T pbc="F F F"
C        0.36600000       1.21920000       0.35980000
N       -0.25690000       0.10050000      -0.31570000
C        0.49340000      -0.67050000      -0.96520000
O       -0.01950000      -1.74090000      -1.61510000
C        0.89710000      -2.49170000      -2.37440000
C        1.83670000      -3.44390000      -1.67330000
C        0.65980000      -3.97140000      -2.47760000
C       -0.50700000      -4.57270000      -1.71780000
C        0.95360000      -4.62560000      -3.81430000
H        1.45880000       1.27510000       0.22390000
H       -0.07300000       2.15690000      -0.00000000
H        0.15670000       1.16340000       1.43420000
H        1.58420000      -0.56340000      -1.06350000
H        1.25120000      -1.96730000      -3.25990000
H        2.84240000      -3.55930000      -2.06410000
H        1.76040000      -3.49470000      -0.59220000
H       -0.70930000      -4.02820000      -0.79380000
H       -1.41930000      -4.54730000      -2.32410000
H       -0.30070000      -5.61920000      -1.46700000
H        1.22080000      -5.67990000      -3.67960000
H        0.07840000      -4.58430000      -4.47280000
H        1.78590000      -4.13670000      -4.33050000
