16
Properties=species:S:1:pos:R:3 gdb_67930=T pbc="F F F"
C       -0.05520000       1.50380000      -0.04060000
C        0.05510000       0.00870000      -0.03180000
C       -0.69410000      -0.92480000      -0.98970000
C       -1.02520000      -1.74040000       0.26790000
O       -1.75010000      -2.63810000       0.54220000
N       -0.33070000      -0.82490000       1.19190000
C        1.09240000      -0.71390000       0.76330000
C        1.87670000      -1.86260000       0.22310000
O        1.39900000      -2.86550000      -0.24670000
H        0.51640000       1.92820000      -0.87310000
H       -1.09930000       1.81170000      -0.15760000
H        0.32550000       1.93090000       0.89080000
H       -1.58800000      -0.46190000      -1.41650000
H       -0.13290000      -1.43250000      -1.77400000
H        1.66030000      -0.08760000       1.44840000
H        2.97700000      -1.71360000       0.26910000
