18
Properties=species:S:1:pos:R:3 gdb_62264=T pbc="F F F"
O        0.46700000       1.53570000       0.17400000
C        0.00770000       0.24180000      -0.11680000
C        0.53310000      -0.24740000      -1.47660000
C        0.07810000       0.68430000      -2.60860000
N        0.58880000       0.28650000      -3.91140000
C        0.06210000      -0.75480000      -4.60480000
O       -0.86160000      -1.44200000      -4.21870000
C        0.41330000      -0.71890000       0.98100000
O        1.05520000      -0.35450000       1.93680000
H        0.92690000       1.46300000       1.02580000
H       -1.09830000       0.22760000      -0.15130000
H        1.62830000      -0.28300000      -1.44380000
H        0.16290000      -1.25740000      -1.68140000
H       -1.01580000       0.68430000      -2.65840000
H        0.40950000       1.70380000      -2.40210000
H        1.37520000       0.77780000      -4.30390000
H        0.56860000      -0.90900000      -5.57840000
H        0.09440000      -1.77330000       0.85640000
