20
Properties=species:S:1:pos:R:3 gdb_92042=T pbc="F F F"
C        0.01540000       1.54250000       0.01400000
C        0.03410000       0.04140000      -0.02750000
C        0.04100000      -0.66260000      -1.16250000
C       -0.00080000      -2.14460000      -1.15750000
C        1.23680000      -2.97580000      -1.07840000
N        0.34580000      -2.85630000       0.07760000
C        0.81700000      -2.01390000       1.18670000
C        0.03050000      -0.70460000       1.30180000
O        0.66020000       0.02710000       2.35040000
H        0.88810000       1.93290000       0.54830000
H        0.00380000       1.96630000      -0.99330000
H       -0.87260000       1.91690000       0.54310000
H        0.01960000      -0.16080000      -2.12800000
H       -0.85390000      -2.57880000      -1.68110000
H        1.27320000      -3.95610000      -1.54760000
H        2.18760000      -2.44760000      -1.03930000
H        0.71920000      -2.57940000       2.11920000
H        1.87490000      -1.73920000       1.08050000
H       -1.01190000      -0.93350000       1.57960000
H        0.05790000       0.71590000       2.64500000
