18
Properties=species:S:1:pos:R:3 gdb_42083=T pbc="F F F"
C        0.01030000       1.52860000       0.22330000
C        1.48460000       1.86950000      -0.04720000
O        1.90760000       0.90230000      -1.01090000
C        1.32750000      -0.32030000      -0.67080000
C       -0.04340000       0.00550000      -0.04380000
C        1.43080000      -1.30250000      -1.85720000
N        2.47050000      -2.27290000      -1.49280000
C        2.77840000      -1.99600000      -0.29530000
O        2.15910000      -0.97530000       0.34430000
H       -0.29690000       1.79420000       1.23690000
H       -0.63720000       2.06580000      -0.47440000
H        1.64430000       2.85890000      -0.48060000
H        2.09060000       1.77950000       0.86390000
H       -0.17900000      -0.58110000       0.86620000
H       -0.84850000      -0.25640000      -0.73390000
H        0.48590000      -1.82480000      -2.04180000
H        1.70320000      -0.75850000      -2.76550000
H        3.51260000      -2.52500000       0.30270000
