14
Properties=species:S:1:pos:R:3 gdb_20566=T pbc="F F F"
C        0.02210000       1.58610000       0.10080000
C        0.02980000       0.06190000      -0.06160000
O        0.80850000      -0.57930000       0.93770000
C       -1.36380000      -0.50050000      -0.08890000
C       -2.10380000      -1.15530000      -1.02360000
N       -3.32400000      -1.42970000      -0.45100000
N       -3.37510000      -1.00670000       0.72640000
O       -2.10140000      -0.37770000       1.01400000
H        1.05190000       1.94990000       0.13120000
H       -0.50110000       2.06880000      -0.73020000
H       -0.48170000       1.87100000       1.02990000
H        0.50800000      -0.20240000      -1.00990000
H        0.39230000      -0.40890000       1.79080000
H       -1.86400000      -1.44710000      -2.03130000
