17
Properties=species:S:1:pos:R:3 gdb_72554=T pbc="F F F"
C        0.03380000       1.50160000       0.08500000
C        0.01670000       0.00490000      -0.05310000
C        0.66020000      -0.71110000      -1.24840000
C        0.28200000      -2.08200000      -0.66610000
C        0.90690000      -1.99070000       0.72820000
O        0.68390000      -0.61500000       1.08040000
O       -1.15200000      -1.95710000      -0.47240000
C       -1.37530000      -0.66010000      -0.07790000
O       -2.45200000      -0.22930000       0.20400000
H        1.06160000       1.86430000       0.16490000
H       -0.44400000       1.96820000      -0.78040000
H       -0.51910000       1.79940000       0.97920000
H        0.16970000      -0.51070000      -2.20310000
H        1.73570000      -0.53740000      -1.32090000
H        0.48020000      -2.98220000      -1.24310000
H        0.40280000      -2.65110000       1.44100000
H        1.98120000      -2.21050000       0.72230000
