18
Properties=species:S:1:pos:R:3 gdb_105299=T pbc="F F F"
C        0.12140000       1.55900000       0.27940000
C       -0.24040000       0.11700000      -0.09820000
C        0.63690000      -0.41880000      -1.21340000
N        2.03190000      -0.74370000      -0.89940000
C        1.15920000      -1.84730000      -1.28380000
C        0.82820000      -2.84450000      -0.21980000
O        0.40890000      -3.94630000      -0.46310000
C        0.39580000       0.13900000      -2.58320000
O       -0.49890000       0.88880000      -2.87360000
H        1.16520000       1.62250000       0.60180000
H       -0.02430000       2.23540000      -0.56650000
H       -0.50950000       1.90750000       1.10170000
H       -0.15020000      -0.52490000       0.78120000
H       -1.28110000       0.06550000      -0.43380000
H        2.66160000      -0.49800000      -1.66220000
H        1.24950000      -2.28570000      -2.27640000
H        1.01770000      -2.49480000       0.81610000
H        1.14410000      -0.20150000      -3.34070000
