17
Properties=species:S:1:pos:R:3 gdb_97099=T pbc="F F F"
C       -0.19300000       1.37750000      -0.07260000
N       -0.20800000      -0.07420000      -0.17690000
C        0.61360000      -0.61740000      -0.96010000
N        1.61290000      -0.19690000      -1.83430000
C        1.94530000      -1.54190000      -2.31410000
C        0.86820000      -2.10690000      -1.31340000
O        1.32330000      -2.95300000      -0.32120000
C       -0.33660000      -2.69920000      -2.01480000
O       -0.80920000      -3.75270000      -1.66740000
H        0.80120000       1.81960000      -0.23930000
H       -0.88790000       1.82650000      -0.79550000
H       -0.53240000       1.67140000       0.92460000
H        1.66250000       0.66510000      -2.35370000
H        1.74720000      -1.71930000      -3.37770000
H        2.95530000      -1.87470000      -2.06090000
H        0.68720000      -3.68650000      -0.28630000
H       -0.75770000      -2.11020000      -2.85310000
