21
Properties=species:S:1:pos:R:3 gdb_9914=T pbc="F F F"
C        0.44480000       0.69400000       1.14860000
C       -0.11680000       0.02850000      -0.09590000
O       -1.21840000      -0.77550000       0.27940000
C       -1.83810000      -1.43190000      -0.80380000
C       -3.02550000      -2.23760000      -0.30680000
C       -3.82530000      -2.89150000      -1.41190000
C       -2.94720000      -2.86250000       1.03590000
N       -3.81540000      -1.68530000       0.80450000
H        1.30210000       1.32230000       0.88950000
H       -0.31380000       1.32170000       1.62480000
H        0.77200000      -0.05790000       1.87240000
H       -0.43630000       0.78540000      -0.83150000
H        0.65240000      -0.59160000      -0.58540000
H       -2.18150000      -0.69260000      -1.54940000
H       -1.12150000      -2.09650000      -1.31670000
H       -3.21650000      -3.61200000      -1.97040000
H       -4.68580000      -3.41720000      -0.99210000
H       -4.20180000      -2.14470000      -2.12060000
H       -3.47710000      -3.79170000       1.22930000
H       -2.03840000      -2.71680000       1.61070000
H       -3.32630000      -0.86640000       1.16150000
