19
Properties=species:S:1:pos:R:3 gdb_124567=T pbc="F F F"
C        0.06280000       1.54260000      -0.04400000
C        0.01230000       0.01150000       0.02710000
C        0.72190000      -0.51140000       1.28140000
C       -1.44420000      -0.51640000      -0.01180000
C       -2.14570000      -0.19780000      -1.28650000
N       -1.97500000      -0.73640000      -2.46050000
C       -2.85940000      -0.02450000      -3.23000000
N       -3.53990000       0.89250000      -2.59960000
O       -3.06230000       0.78180000      -1.28680000
H        1.09900000       1.89480000      -0.04640000
H       -0.42190000       1.92720000      -0.94620000
H       -0.43990000       1.99140000       0.82090000
H        0.52190000      -0.39460000      -0.85560000
H        0.23330000      -0.14340000       2.19140000
H        0.71980000      -1.60570000       1.31820000
H        1.76340000      -0.17630000       1.30630000
H       -1.43570000      -1.60500000       0.10070000
H       -2.01740000      -0.09600000       0.82090000
H       -3.00150000      -0.19690000      -4.28710000
