19
Properties=species:S:1:pos:R:3 gdb_84790=T pbc="F F F"
O        0.11320000       1.31870000      -0.29930000
C       -0.04610000      -0.07990000      -0.05610000
C        0.66630000      -0.52480000       1.19430000
C       -0.18760000      -0.88450000       2.15290000
C       -1.62530000      -0.80490000       1.70380000
C       -1.52400000      -0.52400000       0.19030000
C       -2.62570000       0.27770000      -0.53180000
C       -2.82860000      -1.00250000      -1.36230000
O       -1.83500000      -1.71240000      -0.59280000
H        0.04110000       1.76820000       0.55020000
H        0.31460000      -0.57140000      -0.96490000
H        1.74630000      -0.49170000       1.28360000
H        0.09320000      -1.20140000       3.15200000
H       -2.17660000      -1.73760000       1.86400000
H       -2.17280000      -0.01640000       2.23840000
H       -3.47310000       0.55620000       0.09790000
H       -2.26200000       1.15450000      -1.06740000
H       -3.81430000      -1.47710000      -1.29040000
H       -2.54880000      -0.92670000      -2.42030000
