18
Properties=species:S:1:pos:R:3 gdb_107694=T pbc="F F F"
C        0.13630000       1.38700000      -0.11920000
C        0.04710000      -0.10440000      -0.04410000
N        0.60010000      -1.04590000      -1.08200000
C       -0.00370000      -1.97940000      -0.06690000
C        0.10300000      -3.46570000      -0.21920000
O        1.45900000      -3.85490000      -0.34710000
C        0.45050000      -1.06940000       1.11360000
O       -0.85750000      -1.04460000       1.75700000
C       -1.17420000      -1.02320000       0.33650000
H        1.17820000       1.70720000      -0.21550000
H       -0.42130000       1.77660000      -0.97770000
H       -0.28410000       1.82650000       0.79060000
H        0.01860000      -1.01930000      -1.92480000
H       -0.30190000      -3.95990000       0.67050000
H       -0.49670000      -3.79600000      -1.08480000
H        1.87500000      -3.20670000      -0.92920000
H        1.34830000      -1.10650000       1.72810000
H       -2.22070000      -0.99500000       0.02640000
