20
Properties=species:S:1:pos:R:3 gdb_88580=T pbc="F F F"
C       -0.39590000      -1.95580000       3.05250000
N       -0.11560000      -1.67220000       1.65200000
C       -0.91880000      -0.63120000       1.02480000
C        0.54140000      -0.41760000       1.27480000
C        1.02050000       0.62220000       2.22330000
C        1.74440000       0.50520000       3.33480000
C        2.04870000       1.86070000       3.90350000
O        1.46250000       2.78930000       2.99530000
C        0.79580000       2.09290000       1.95050000
H       -0.67230000      -1.07250000       3.64620000
H       -1.22060000      -2.67430000       3.09640000
H        0.48090000      -2.42110000       3.51450000
H       -1.28750000      -0.83910000       0.02360000
H       -1.61060000      -0.07820000       1.66000000
H        1.20030000      -0.54300000       0.41410000
H        2.08570000      -0.41470000       3.79140000
H        1.62510000       2.00030000       4.91170000
H        3.13130000       2.04950000       3.98240000
H        1.20310000       2.40100000       0.97380000
H       -0.27590000       2.34960000       1.94480000
