19
Properties=species:S:1:pos:R:3 gdb_103297=T pbc="F F F"
C       -0.04340000       1.41040000       0.18990000
C       -0.01400000      -0.05780000      -0.08940000
C        0.82030000      -0.88600000      -1.09530000
C        0.13020000      -1.87070000      -0.13440000
O        0.50330000      -0.96820000       0.99320000
C       -1.20560000      -1.07300000      -0.23850000
O       -2.04970000      -1.16280000       0.87750000
C       -2.11290000      -1.13820000      -1.45530000
O       -2.87600000      -2.33010000      -1.44240000
H        0.94890000       1.77050000       0.47680000
H       -0.36700000       1.95730000      -0.70130000
H       -0.74550000       1.62800000       1.00070000
H        0.54160000      -0.88050000      -2.14980000
H        1.89700000      -0.80700000      -0.94510000
H        0.29670000      -2.93760000       0.01060000
H       -1.44820000      -1.18650000       1.63730000
H       -2.75940000      -0.24540000      -1.45180000
H       -1.54640000      -1.13590000      -2.38830000
H       -3.24130000      -2.39420000      -0.55160000
