19
Properties=species:S:1:pos:R:3 gdb_92585=T pbc="F F F"
O        0.27900000       1.38080000      -0.12860000
C        0.12310000      -0.00940000      -0.01130000
C        0.22060000      -0.55300000       1.44660000
C       -1.31840000      -0.54030000       1.52260000
O       -1.72840000       0.72000000       2.04670000
C       -3.05520000       1.07100000       1.67500000
C       -3.26520000       1.02980000       0.18330000
C       -2.46180000       0.32060000      -0.60810000
C       -1.37500000      -0.51960000      -0.02680000
H       -0.30510000       1.78150000       0.52810000
H        0.78830000      -0.45760000      -0.75260000
H        0.62190000      -1.56920000       1.48820000
H        0.74290000       0.08020000       2.16690000
H       -1.83240000      -1.35670000       2.04770000
H       -3.78190000       0.41940000       2.19140000
H       -3.21240000       2.08540000       2.05780000
H       -4.09100000       1.61180000      -0.21580000
H       -2.58830000       0.33280000      -1.68730000
H       -1.40320000      -1.53890000      -0.42810000
