11
Properties=species:S:1:pos:R:3 gdb_132723=T pbc="F F F"
F        0.00100000       0.07620000       0.00330000
C       -0.01680000       1.38700000       0.01080000
N       -1.21860000       1.94180000       0.02960000
C       -1.23140000       3.27020000       0.03690000
C       -0.05260000       4.02770000       0.02520000
C        1.14630000       3.30260000       0.00540000
N        1.16950000       1.97440000      -0.00200000
C       -0.07190000       5.45210000       0.03310000
N       -0.08760000       6.60940000       0.03940000
H       -2.20320000       3.75520000       0.05240000
H        2.10460000       3.81400000      -0.00460000
