20
Properties=species:S:1:pos:R:3 gdb_9349=T pbc="F F F"
C        0.11530000       1.45350000       0.00810000
C       -0.02460000      -0.07140000       0.00120000
C       -1.48080000      -0.50670000       0.01310000
O       -1.51160000      -1.94610000       0.00540000
C       -2.73660000      -2.51050000       0.01480000
O       -3.76360000      -1.87860000       0.02860000
C       -2.63180000      -4.02290000       0.00580000
C       -3.99480000      -4.71030000       0.01350000
H        1.16800000       1.74940000      -0.00050000
H       -0.36390000       1.90230000      -0.86870000
H       -0.34660000       1.89260000       0.89910000
H        0.46470000      -0.49260000      -0.88460000
H        0.48200000      -0.50220000       0.87250000
H       -2.00670000      -0.14170000       0.90220000
H       -2.02400000      -0.13190000      -0.86150000
H       -2.04120000      -4.31020000      -0.87220000
H       -2.02690000      -4.31940000       0.87100000
H       -3.87550000      -5.79730000       0.00700000
H       -4.56930000      -4.43010000       0.89990000
H       -4.58370000      -4.42140000      -0.86070000
