23
Properties=species:S:1:pos:R:3 gdb_99984=T pbc="F F F"
C        0.15570000       1.56010000       0.02130000
C       -0.02720000       0.03950000      -0.03440000
C       -1.48770000      -0.47610000       0.03570000
C       -2.20950000       0.04070000       1.29390000
C       -2.26970000      -0.05520000      -1.22150000
C       -1.41270000      -2.04000000       0.07550000
N       -0.71240000      -2.53510000       1.26600000
C       -2.75200000      -2.65620000      -0.06190000
N       -3.78750000      -3.16920000      -0.11670000
H        1.21770000       1.81040000      -0.06460000
H       -0.36560000       2.07400000      -0.79230000
H       -0.20060000       1.98110000       0.96620000
H        0.41940000      -0.33550000      -0.96580000
H        0.53600000      -0.42320000       0.78110000
H       -2.37090000       1.11990000       1.23230000
H       -3.19260000      -0.42940000       1.40460000
H       -1.62800000      -0.15200000       2.20140000
H       -1.79290000      -0.43560000      -2.13220000
H       -3.29790000      -0.42750000      -1.19920000
H       -2.31620000       1.03390000      -1.30050000
H       -0.82810000      -2.35570000      -0.79710000
H       -1.30610000      -2.43480000       2.08360000
H       -0.52820000      -3.52870000       1.16840000
