16
Properties=species:S:1:pos:R:3 gdb_85649=T pbc="F F F"
C        0.71880000       1.36950000      -0.16460000
C        0.02590000       0.01900000      -0.04520000
C        0.30470000      -0.95960000      -1.20710000
C        1.49120000      -1.79520000      -0.68750000
C        2.79450000      -1.30210000      -1.12430000
N        3.81350000      -0.89250000      -1.48430000
C        1.35280000      -1.67140000       0.85580000
O        1.88580000      -2.34820000       1.67950000
O        0.49770000      -0.66830000       1.14040000
H        1.79210000       1.25290000      -0.34220000
H        0.29120000       1.93440000      -0.99870000
H        0.57980000       1.94760000       0.75230000
H       -1.04770000       0.15860000       0.10320000
H       -0.55280000      -1.61810000      -1.36360000
H        0.51740000      -0.44260000      -2.14310000
H        1.41820000      -2.85340000      -0.94890000
