18
Properties=species:S:1:pos:R:3 gdb_19196=T pbc="F F F"
C       -0.09500000       1.63420000       0.04230000
C        0.01090000       0.12000000       0.00310000
C        0.84590000      -0.63050000      -1.10010000
C        2.23000000      -0.01390000      -0.89430000
O        2.30120000      -0.02710000       0.55680000
C        1.03660000      -0.61210000       0.90780000
C        0.94970000      -1.80960000      -0.08660000
O       -0.22200000      -2.58930000      -0.06550000
H        0.88570000       2.10850000       0.13070000
H       -0.58590000       2.02070000      -0.85780000
H       -0.69250000       1.95380000       0.90320000
H       -0.96680000      -0.35530000       0.08460000
H        0.48870000      -0.77500000      -2.11910000
H        3.04410000      -0.61700000      -1.31240000
H        2.32160000       1.01150000      -1.26850000
H        0.95880000      -0.70020000       1.99190000
H        1.85570000      -2.42750000      -0.14550000
H       -0.19340000      -3.14800000       0.71770000
