16
Properties=species:S:1:pos:R:3 gdb_131878=T pbc="F F F"
O       -0.02970000       1.43520000      -0.03660000
C       -0.00000000       0.02250000      -0.00900000
C       -1.39210000      -0.57870000       0.04060000
O       -2.04520000      -0.17500000      -1.17960000
C       -3.31950000      -0.54810000      -1.32450000
N       -3.96200000      -1.27060000      -0.43450000
O       -5.24410000      -1.43620000      -0.96810000
C       -5.30820000      -0.80680000      -2.14950000
C       -4.12810000      -0.21620000      -2.45180000
H       -0.58260000       1.68430000      -0.78520000
H        0.54170000      -0.38970000      -0.87490000
H        0.54440000      -0.26850000       0.89510000
H       -1.36400000      -1.67260000       0.09820000
H       -1.96050000      -0.19590000       0.89450000
H       -6.25730000      -0.86530000      -2.66030000
H       -3.85700000       0.35950000      -3.31960000
