20
Properties=species:S:1:pos:R:3 gdb_97590=T pbc="F F F"
C       -0.71130000       1.15630000      -0.26660000
C        0.46940000       0.21500000       0.03420000
C        1.02360000      -0.41010000      -1.16230000
C        1.46160000      -0.90400000      -2.17080000
C        1.99770000      -1.53910000      -3.37730000
O        1.45120000      -2.84710000      -3.56740000
C        1.69830000      -0.71760000      -4.62810000
C        1.61500000      -1.37960000      -5.94950000
N        0.40120000      -0.84890000      -5.29320000
H       -0.40260000       1.96470000      -0.93440000
H       -1.52710000       0.61330000      -0.75080000
H       -1.09050000       1.59790000       0.65960000
H        1.26250000       0.77010000       0.55130000
H        0.14800000      -0.56780000       0.73320000
H        3.09350000      -1.61170000      -3.27690000
H        1.26640000      -3.21210000      -2.69720000
H        2.07440000       0.30060000      -4.56340000
H        1.92670000      -0.84390000      -6.84170000
H        1.74720000      -2.45600000      -5.98190000
H       -0.08700000      -1.63260000      -4.86250000
