15
Properties=species:S:1:pos:R:3 gdb_7100=T pbc="F F F"
C        0.06260000       1.53440000       0.18040000
C       -0.00230000       0.03010000       0.00910000
O        0.67920000      -0.56820000       1.13820000
C        0.72160000      -1.90790000       1.15030000
O        0.24780000      -2.62730000       0.31520000
C        1.47240000      -2.36680000       2.40260000
C        1.57460000      -3.81630000       2.51220000
N        1.67390000      -4.96000000       2.63040000
H        1.09920000       1.88160000       0.20430000
H       -0.44460000       2.02160000      -0.65730000
H       -0.42760000       1.84460000       1.10730000
H       -1.03140000      -0.34030000      -0.01200000
H        0.48830000      -0.30380000      -0.90990000
H        2.47290000      -1.92100000       2.39480000
H        0.96550000      -1.96010000       3.28430000
