18
Properties=species:S:1:pos:R:3 gdb_108285=T pbc="F F F"
C       -0.11140000       1.58130000       0.04440000
C        0.03530000       0.05680000      -0.04800000
C        0.72580000      -0.54100000       1.15700000
C        2.25670000      -0.38030000       1.34920000
O        2.41640000      -1.78890000       1.63230000
C        1.01260000      -2.04990000       1.42150000
C        0.21830000      -1.86600000       2.74490000
O       -0.04650000      -2.52710000       3.70910000
N       -0.02920000      -0.54010000       2.41900000
H        0.86310000       2.07310000       0.13720000
H       -0.60110000       1.98130000      -0.84770000
H       -0.71690000       1.86930000       0.91040000
H       -0.95250000      -0.40640000      -0.15140000
H        0.60740000      -0.20650000      -0.94550000
H        2.79760000      -0.10310000       0.43600000
H        2.58030000       0.25740000       2.17910000
H        0.81070000      -2.88750000       0.75280000
H       -0.25200000       0.22800000       3.03860000
