17
Properties=species:S:1:pos:R:3 gdb_113347=T pbc="F F F"
O       -0.04730000       1.32170000      -0.54520000
C        0.03280000       0.12630000       0.20890000
C       -1.31040000      -0.57080000       0.22940000
N       -1.66430000      -1.34870000      -0.96590000
C       -1.51060000      -2.05590000       0.33170000
C       -0.38820000      -3.08620000       0.35640000
O       -0.72490000      -4.21380000      -0.41880000
C       -2.73020000      -2.48290000       0.98640000
N       -3.70770000      -2.81510000       1.50760000
H       -0.25100000       1.07060000      -1.45330000
H        0.81240000      -0.54100000      -0.17930000
H        0.31330000       0.42120000       1.22500000
H       -2.10100000       0.03250000       0.67110000
H       -2.64880000      -1.23760000      -1.19510000
H        0.53970000      -2.61500000       0.01040000
H       -0.23010000      -3.44290000       1.37820000
H       -0.87110000      -3.90150000      -1.31960000
