19
Properties=species:S:1:pos:R:3 gdb_41605=T pbc="F F F"
C       -0.02680000       1.46620000      -0.01140000
C        1.51830000       1.49180000      -0.24690000
C        1.57080000      -0.02540000      -0.02870000
C        0.03720000      -0.05080000       0.20500000
C        0.65010000      -0.71380000      -0.99480000
O        0.44280000      -0.20020000      -2.29910000
C        0.31970000      -1.27900000      -3.22550000
C        0.46660000      -2.52580000      -2.39630000
C        0.65490000      -2.18870000      -1.12420000
H       -0.31580000       2.00800000       0.89150000
H       -0.65460000       1.79520000      -0.84310000
H        1.85900000       1.83690000      -1.22610000
H        2.04540000       2.04710000       0.53170000
H        2.36160000      -0.56260000       0.48430000
H       -0.54710000      -0.61070000       0.92760000
H       -0.65520000      -1.22220000      -3.73520000
H        1.09630000      -1.19320000      -4.00190000
H        0.42050000      -3.52540000      -2.80780000
H        0.79420000      -2.85350000      -0.28190000
