18
Properties=species:S:1:pos:R:3 gdb_88038=T pbc="F F F"
C       -0.00870000       1.56740000      -0.12690000
C       -0.00320000       0.06960000       0.01650000
O        1.28280000      -0.59180000      -0.08400000
C        0.61080000      -0.61880000       1.14810000
C        1.14690000      -0.10010000       2.48170000
N        0.35550000      -1.16360000       3.15790000
C        0.16930000      -1.90880000       1.87540000
C       -1.15500000      -2.45150000       1.62790000
C       -2.24520000      -2.90200000       1.39510000
H        0.80960000       2.01970000       0.43940000
H        0.10280000       1.85360000      -1.17770000
H       -0.95660000       1.97930000       0.23560000
H       -0.79940000      -0.46240000      -0.50520000
H        2.23750000      -0.21450000       2.54850000
H        0.87450000       0.91720000       2.78090000
H        0.86130000      -1.68640000       3.86390000
H        0.92630000      -2.68980000       1.70750000
H       -3.21100000      -3.29900000       1.20160000
