16
Properties=species:S:1:pos:R:3 gdb_28795=T pbc="F F F"
N        0.20600000       1.43620000       0.12240000
C        0.05200000       0.03660000       0.08760000
C       -1.01470000      -0.82530000       0.10480000
N       -0.61700000      -2.15830000      -0.04490000
C        0.67230000      -2.06210000      -0.12900000
O        1.64290000      -2.97840000      -0.35540000
C        2.89680000      -2.27010000      -0.24510000
C        2.56800000      -0.75080000      -0.36570000
N        1.16080000      -0.79900000      -0.04170000
H        0.36510000       1.78840000       1.06280000
H       -0.62150000       1.89460000      -0.23940000
H       -2.05770000      -0.57120000       0.22130000
H        3.33900000      -2.49550000       0.73160000
H        3.56130000      -2.62910000      -1.03220000
H        3.14980000      -0.15190000       0.33920000
H        2.73480000      -0.35920000      -1.37610000
