14
Properties=species:S:1:pos:R:3 gdb_123983=T pbc="F F F"
C       -0.00190000       1.46670000      -0.05330000
N        1.34720000       2.01770000       0.11670000
C        2.35390000       1.27760000       0.26930000
O        2.44240000      -0.09700000       0.31210000
C        1.23120000      -0.71440000       0.16210000
C        0.92730000      -2.05570000       0.15100000
N       -0.42170000      -2.09380000      -0.03040000
N       -0.99470000      -0.87750000      -0.13510000
C        0.02000000      -0.02840000      -0.01690000
H       -0.64220000       1.88500000       0.73380000
H       -0.40800000       1.84620000      -0.99960000
H        3.34900000       1.69590000       0.39450000
H        1.52990000      -2.94240000       0.25230000
H       -1.00390000      -2.91080000      -0.09080000
