20
Properties=species:S:1:pos:R:3 gdb_118445=T pbc="F F F"
C       -0.64300000       1.11480000      -0.12440000
N        0.43280000       0.12430000      -0.19420000
H        0.13490000      -0.67120000      -0.75440000
H        2.24260000       0.39740000      -0.47740000
C        0.88920000      -0.40400000       1.09840000
C        0.25520000      -1.76750000       1.44390000
O        0.22720000      -2.64650000       0.33590000
C        1.44220000      -3.33640000       0.08030000
C        2.43330000      -0.46860000       1.13340000
O        3.04360000      -0.97030000       2.04140000
O        3.01020000       0.09920000       0.07110000
H       -0.28200000       2.01220000       0.38730000
H       -0.93420000       1.40140000      -1.13850000
H       -1.54070000       0.75760000       0.40250000
H        0.61460000       0.29730000       1.89540000
H        0.79300000      -2.20450000       2.29480000
H       -0.79200000      -1.61700000       1.72560000
H        1.21320000      -4.10990000      -0.65650000
H        2.21940000      -2.67880000      -0.33030000
H        1.83260000      -3.80680000       0.99190000
