19
Properties=species:S:1:pos:R:3 gdb_70678=T pbc="F F F"
C       -0.05130000       1.51750000       0.00760000
C        0.04040000       0.00440000       0.00450000
C       -1.06900000      -0.64800000      -0.82000000
N       -1.02760000      -2.05720000      -1.16010000
C       -0.48800000      -3.00630000      -0.53630000
O        0.20660000      -3.08770000       0.63150000
C        0.09900000      -2.05660000       1.61650000
C        0.59990000      -0.69330000       1.18610000
N        1.42090000      -0.51910000      -0.02380000
H        0.75830000       1.94740000       0.60180000
H        0.03150000       1.91440000      -1.01030000
H       -1.00730000       1.85450000       0.42450000
H       -2.03190000      -0.44070000      -0.32990000
H       -1.12070000      -0.11140000      -1.77660000
H       -0.51920000      -4.00670000      -0.97010000
H       -0.94280000      -1.99180000       1.95960000
H        0.70150000      -2.42720000       2.44990000
H        0.92690000      -0.08860000       2.03190000
H        1.46370000      -1.39770000      -0.53660000
