20
Properties=species:S:1:pos:R:3 gdb_79759=T pbc="F F F"
C       -0.18330000       1.53680000       0.03300000
C       -0.01410000       0.01900000      -0.02360000
C        0.52520000      -0.56040000      -1.32760000
C        2.01580000      -0.47990000      -1.55100000
C        2.84380000       0.20200000      -0.47300000
C        2.31920000      -0.38890000       0.82600000
C        1.59540000      -1.66510000       0.53230000
C        1.39950000      -1.74450000      -0.97260000
N        0.86420000      -0.49360000       1.05090000
H        0.75300000       2.06400000      -0.16490000
H       -0.91600000       1.86520000      -0.71110000
H       -0.54160000       1.83920000       1.02110000
H       -0.99760000      -0.43490000       0.16200000
H       -0.12370000      -0.58960000      -2.19710000
H        2.37150000      -0.46250000      -2.57550000
H        3.90330000      -0.06210000      -0.58260000
H        2.78200000       1.29490000      -0.50370000
H        2.89350000      -0.23510000       1.73580000
H        1.63880000      -2.55900000       1.14420000
H        1.37170000      -2.69150000      -1.49420000
