18
Properties=species:S:1:pos:R:3 gdb_28549=T pbc="F F F"
C       -0.01960000       1.52030000       0.01250000
C       -0.01700000       0.02930000      -0.05190000
C       -0.06060000      -0.79340000      -1.13760000
C       -0.03630000      -2.15410000      -0.68380000
C        0.02200000      -2.15090000       0.67630000
C        0.06700000      -3.30220000       1.62790000
N        0.03480000      -0.80250000       1.08540000
C        0.09000000      -0.38970000       2.40780000
O        0.10260000       0.75660000       2.78240000
H        0.87650000       1.91440000       0.50090000
H       -0.06400000       1.91240000      -1.00710000
H       -0.87400000       1.90810000       0.57480000
H       -0.10570000      -0.45890000      -2.16320000
H       -0.05970000      -3.03950000      -1.30150000
H        0.97820000      -3.31610000       2.23810000
H       -0.78780000      -3.32190000       2.31470000
H        0.04510000      -4.23030000       1.05200000
H        0.12380000      -1.24540000       3.10260000
