21
Properties=species:S:1:pos:R:3 gdb_63730=T pbc="F F F"
C       -0.50690000       1.52410000       0.15460000
C       -0.03330000       0.08090000      -0.03080000
C       -1.18030000      -0.91770000       0.13870000
C        0.88280000      -0.16360000      -1.29000000
C        2.05960000      -0.49470000      -0.35770000
C        3.12590000      -1.56380000      -0.47050000
C        3.52390000      -0.12340000      -0.46120000
C        1.19820000      -0.26460000       0.84580000
O        1.38200000      -0.32290000       2.03160000
H        0.31410000       2.23740000       0.02810000
H       -1.28520000       1.77210000      -0.57580000
H       -0.92170000       1.66540000       1.15770000
H       -1.97340000      -0.72270000      -0.59190000
H       -0.84060000      -1.94940000       0.00050000
H       -1.61210000      -0.83880000       1.14140000
H        0.55500000      -0.99120000      -1.92460000
H        1.02820000       0.72290000      -1.91300000
H        3.31340000      -2.15680000       0.41860000
H        3.17630000      -2.10810000      -1.40770000
H        3.84960000       0.32910000      -1.39190000
H        3.98620000       0.27850000       0.43430000
