19
Properties=species:S:1:pos:R:3 gdb_19154=T pbc="F F F"
C       -0.05400000       1.52120000       0.13030000
C       -0.06260000       0.00650000      -0.08410000
C        0.68740000      -0.48920000      -1.31230000
C        0.87920000       0.34740000      -2.50760000
O        1.95100000       0.14000000      -1.57630000
C        0.71220000      -1.98910000      -1.44920000
C        1.77380000      -2.67130000      -2.22210000
N        1.75920000      -2.75770000      -0.74850000
H        0.96700000       1.90980000       0.08880000
H       -0.65000000       2.04400000      -0.62420000
H       -0.47570000       1.76910000       1.10830000
H        0.37980000      -0.49110000       0.78870000
H       -1.09380000      -0.36420000      -0.14630000
H        1.00830000      -0.13410000      -3.47520000
H        0.49130000       1.36290000      -2.54020000
H       -0.27100000      -2.45310000      -1.39290000
H        1.55230000      -3.60040000      -2.73920000
H        2.53460000      -2.04900000      -2.68300000
H        2.45120000      -2.10040000      -0.39110000
