18
Properties=species:S:1:pos:R:3 gdb_39257=T pbc="F F F"
C       -0.06450000       1.45330000       0.37930000
O        0.86850000       2.06600000      -0.51980000
C        1.85020000       1.10630000      -0.90860000
C        2.18930000       1.15800000      -2.41690000
C        1.91550000      -0.25190000      -2.90020000
C        1.37880000      -1.02950000      -1.95460000
C        1.20770000      -0.26600000      -0.70410000
N        1.16770000      -0.72410000       0.69410000
C       -0.01380000      -0.04270000       0.10900000
H        0.20520000       1.66980000       1.42270000
H       -1.05350000       1.87550000       0.17390000
H        2.74620000       1.21770000      -0.28370000
H        1.53730000       1.88780000      -2.91220000
H        3.22120000       1.47100000      -2.60920000
H        2.10870000      -0.56270000      -3.92100000
H        1.07370000      -2.06290000      -2.07420000
H        0.99340000      -1.72850000       0.72280000
H       -0.92760000      -0.60490000      -0.05000000
