20
Properties=species:S:1:pos:R:3 gdb_66177=T pbc="F F F"
O        0.09390000       1.59100000      -0.26590000
C        0.00900000       0.21300000       0.00790000
C        0.87320000      -0.56380000      -0.97560000
O        2.21310000      -0.08170000      -0.81110000
C        3.12730000      -0.49910000      -1.70950000
N        4.32420000      -0.11300000      -1.61450000
C        0.19840000      -0.24240000       1.48930000
C       -1.07940000      -1.11390000       1.34710000
C       -1.44400000      -0.31440000       0.06540000
H        1.03270000       1.80890000      -0.32700000
H        0.83310000      -1.64270000      -0.77890000
H        0.52920000      -0.37130000      -2.00010000
H        2.71330000      -1.16890000      -2.47570000
H        4.88030000      -0.51360000      -2.36700000
H        1.13800000      -0.73450000       1.75020000
H        0.04190000       0.60930000       2.15480000
H       -0.85220000      -2.16220000       1.13550000
H       -1.79620000      -1.08010000       2.16920000
H       -2.12090000       0.51720000       0.27380000
H       -1.81750000      -0.86520000      -0.80290000
