17
Properties=species:S:1:pos:R:3 gdb_60510=T pbc="F F F"
O        0.17910000       1.59410000      -0.04010000
C        0.06470000       0.19800000      -0.05520000
C        0.70240000      -0.39690000      -1.29880000
C        0.15610000      -1.65850000      -1.91940000
C       -0.04860000      -0.33290000      -2.60390000
C        0.70050000      -0.37010000       1.21800000
O        1.25940000       0.37170000       2.00310000
C        0.59880000      -1.79230000       1.44820000
C        0.49150000      -2.97240000       1.65940000
H        0.66340000       1.80880000       0.77370000
H       -0.99890000      -0.09940000      -0.03920000
H        1.77680000      -0.24420000      -1.35050000
H        0.86340000      -2.36160000      -2.34420000
H       -0.70130000      -2.12700000      -1.44870000
H       -1.04240000       0.10170000      -2.58990000
H        0.51730000      -0.11930000      -3.50320000
H        0.40470000      -4.01460000       1.85100000
