17
Properties=species:S:1:pos:R:3 gdb_46683=T pbc="F F F"
N       -0.11430000       1.31600000       0.29430000
C       -0.00470000       0.11050000      -0.07830000
O        1.14070000      -0.37820000      -0.62700000
C        1.26900000      -1.79560000      -0.80550000
C       -0.01940000      -2.48450000      -1.22860000
C       -1.04670000      -2.93170000      -0.26110000
C       -1.03650000      -2.06450000       0.98950000
C       -1.15670000      -0.84310000       0.02520000
N       -1.30300000      -1.75180000      -1.18090000
H        0.77260000       1.80770000       0.16140000
H        2.02820000      -1.91280000      -1.58130000
H        1.66730000      -2.23350000       0.11900000
H        0.05960000      -3.07250000      -2.13810000
H       -1.58090000      -3.86820000      -0.38130000
H       -1.93380000      -2.17560000       1.59890000
H       -0.16050000      -2.13090000       1.64230000
H       -2.06290000      -0.26130000       0.17430000
