17
Properties=species:S:1:pos:R:3 gdb_6924=T pbc="F F F"
C       -0.19640000       1.40680000       0.33250000
C        0.06330000      -0.05840000       0.08240000
O       -1.06510000      -0.79890000      -0.29800000
C        1.39630000      -0.52920000      -0.46290000
C        0.98700000      -0.85580000       0.95920000
N        1.70440000      -0.23460000       2.03250000
C        1.12020000       0.11240000       3.21630000
O       -0.06660000       0.06960000       3.44880000
H        0.70550000       1.91750000       0.67800000
H       -0.52880000       1.90010000      -0.58900000
H       -0.97240000       1.52010000       1.09340000
H       -1.35310000      -0.47430000      -1.15840000
H        1.39390000      -1.34500000      -1.17620000
H        2.17910000       0.20980000      -0.60200000
H        0.65090000      -1.87250000       1.14700000
H        2.71250000      -0.26230000       2.00360000
H        1.87280000       0.46240000       3.95260000
