21
Properties=species:S:1:pos:R:3 gdb_110560=T pbc="F F F"
C       -0.14610000       1.58330000       0.03280000
C        0.18060000       0.09200000      -0.10910000
C        0.79590000      -0.50050000       1.15230000
C       -0.10070000      -0.83010000       2.37210000
C       -0.59470000      -2.18510000       1.76060000
C       -0.21950000      -3.00160000       3.01630000
C        0.89700000      -1.95100000       2.86340000
O        2.05440000      -1.78450000       3.59980000
C        0.90200000      -2.03620000       1.30800000
H        0.75340000       2.16340000       0.26740000
H       -0.57260000       1.98900000      -0.88990000
H       -0.86860000       1.75600000       0.83780000
H       -0.72930000      -0.45960000      -0.37660000
H        0.87880000      -0.04920000      -0.94500000
H        1.71760000       0.03200000       1.41790000
H       -0.68870000      -0.16600000       3.01000000
H       -1.45360000      -2.31920000       1.10850000
H       -0.88400000      -2.90280000       3.88210000
H        0.06370000      -4.04750000       2.85920000
H        1.81080000      -1.55620000       4.50350000
H        1.46440000      -2.75920000       0.71400000
