16
Properties=species:S:1:pos:R:3 gdb_128400=T pbc="F F F"
C       -0.12420000       1.45660000       0.00830000
N        0.07860000       0.02100000      -0.01820000
C        0.72630000      -0.60080000      -1.02880000
N        1.15690000       0.04280000      -2.05460000
C        1.73400000      -0.67490000      -3.08590000
N        1.63550000      -2.00140000      -3.27630000
N        2.34660000      -2.20070000      -4.38270000
N        2.89160000      -1.13180000      -4.94490000
C        2.51430000      -0.14330000      -4.13590000
H        0.82320000       1.99970000       0.10940000
H       -0.59410000       1.78190000      -0.92350000
H       -0.77440000       1.70840000       0.84830000
H       -0.11650000      -0.51110000       0.81110000
H        0.83470000      -1.68210000      -0.90040000
H        2.43510000      -3.11500000      -4.79400000
H        2.80430000       0.87840000      -4.31750000
