16
Properties=species:S:1:pos:R:3 gdb_7263=T pbc="F F F"
C        0.05820000       1.43670000      -0.44340000
C        0.05240000       0.02520000       0.16460000
O        0.79040000      -0.00180000       1.35540000
C       -1.37350000      -0.45620000       0.46200000
O       -1.73730000      -0.64630000       1.60900000
N       -2.18820000      -0.65190000      -0.62460000
C       -3.50850000      -1.07810000      -0.54330000
N       -4.18490000      -1.23970000      -1.60410000
H        1.09390000       1.75920000      -0.57370000
H       -0.43790000       1.47050000      -1.41890000
H       -0.43980000       2.14080000       0.22940000
H        0.49800000      -0.67640000      -0.56020000
H        0.14920000      -0.22840000       2.04910000
H       -1.83170000      -0.49520000      -1.55730000
H       -3.82850000      -1.23400000       0.48820000
H       -5.12740000      -1.55350000      -1.38050000
