18
Properties=species:S:1:pos:R:3 gdb_42312=T pbc="F F F"
N       -0.06510000       1.32140000      -0.25030000
C        0.08110000       0.05340000      -0.11760000
C       -1.13500000      -0.74910000      -0.17290000
N       -2.08750000      -1.40190000      -0.21370000
N        1.22230000      -0.67070000       0.07240000
C        2.52830000      -0.02260000       0.17710000
C        3.47660000      -1.17190000       0.55450000
C        2.79600000      -2.41100000      -0.05000000
C        1.30430000      -2.13430000       0.17710000
H        0.83050000       1.80700000      -0.20430000
H        2.80680000       0.43860000      -0.78160000
H        2.51220000       0.77270000       0.93220000
H        4.49020000      -1.00930000       0.18290000
H        3.53110000      -1.26580000       1.64390000
H        3.00390000      -2.47180000      -1.12340000
H        3.11860000      -3.34760000       0.40910000
H        0.98410000      -2.47510000       1.17110000
H        0.66170000      -2.61700000      -0.56250000
