20
Properties=species:S:1:pos:R:3 gdb_71844=T pbc="F F F"
C       -0.02730000       1.53510000       0.00960000
C       -0.00970000       0.02550000      -0.02270000
C        0.00310000      -0.71700000      -1.35760000
C       -0.74410000      -1.84360000      -0.58420000
C        0.32590000      -2.72110000       0.01080000
C        1.15250000      -2.08950000       0.84780000
C        0.72070000      -0.68960000       1.19780000
C       -0.73170000      -0.86220000       1.75250000
N       -1.27780000      -0.75010000       0.37480000
H        0.93450000       1.93220000      -0.33630000
H       -0.81440000       1.92470000      -0.64350000
H       -0.20040000       1.92140000       1.01950000
H       -0.65700000      -0.20250000      -2.06130000
H        0.94920000      -0.97620000      -1.83530000
H       -1.54450000      -2.38500000      -1.08910000
H        0.42820000      -3.75730000      -0.29240000
H        2.00110000      -2.55310000       1.33880000
H        1.45420000      -0.11250000       1.76450000
H       -0.95040000      -1.78380000       2.29760000
H       -1.08560000       0.00080000       2.32420000
