22
Properties=species:S:1:pos:R:3 gdb_99169=T pbc="F F F"
C        0.41250000       1.41970000       0.20140000
N        0.38920000      -0.01200000      -0.02340000
C        0.50330000      -0.56510000      -1.26680000
O        0.65670000       0.10130000      -2.27640000
C        0.40480000      -2.08990000      -1.30760000
C        1.37650000      -2.69640000      -2.31090000
C        2.89100000      -2.76660000      -1.96370000
C        2.93940000      -4.15700000      -2.65280000
C        1.39510000      -4.23710000      -2.50950000
H        1.23130000       1.70570000       0.87110000
H        0.56230000       1.89520000      -0.76860000
H       -0.53110000       1.77480000       0.63170000
H        0.26710000      -0.62440000       0.76510000
H        0.55900000      -2.52400000      -0.31140000
H       -0.62490000      -2.33550000      -1.60220000
H        1.24270000      -2.18600000      -3.26830000
H        3.53700000      -1.97510000      -2.34970000
H        3.05010000      -2.85010000      -0.88240000
H        3.24370000      -4.07770000      -3.70030000
H        3.53480000      -4.94050000      -2.17820000
H        1.10590000      -4.76270000      -1.59260000
H        0.81930000      -4.65150000      -3.34120000
