17
Properties=species:S:1:pos:R:3 gdb_55705=T pbc="F F F"
C        0.13110000       1.43320000      -0.12420000
C       -0.18050000      -0.02690000       0.06220000
N       -0.76750000      -0.61510000       1.01400000
O        0.29250000      -0.73140000      -1.01120000
C        0.13060000      -2.12910000      -0.98790000
C       -1.21970000      -2.70400000      -1.33570000
C       -0.10500000      -2.75040000      -2.34480000
C        0.97690000      -2.82400000      -0.04500000
N        1.67300000      -3.40440000       0.67290000
H        1.21410000       1.58030000      -0.17710000
H       -0.29170000       1.79380000      -1.06670000
H       -0.27090000       2.02370000       0.70010000
H       -1.04740000       0.04580000       1.73470000
H       -1.51790000      -3.61720000      -0.83580000
H       -2.00980000      -1.97700000      -1.47660000
H       -0.13260000      -2.05080000      -3.17190000
H        0.37810000      -3.69740000      -2.55200000
