19
Properties=species:S:1:pos:R:3 gdb_37822=T pbc="F F F"
C       -0.09630000       1.60560000       0.06470000
C        1.41210000       1.29630000       0.01270000
C        1.25680000      -0.01650000       0.87900000
C        2.02460000      -0.87760000      -0.14200000
C        1.21130000       0.11210000      -1.00160000
C        0.59140000      -0.07370000      -2.36130000
O       -0.62580000      -0.82030000      -2.11870000
C       -0.95130000      -0.90320000      -0.70990000
C       -0.01790000       0.06830000      -0.03720000
H       -0.48550000       2.01910000       1.00030000
H       -0.51740000       2.13980000      -0.79290000
H        2.26030000       1.98260000       0.04890000
H        1.26980000      -0.06090000       1.96970000
H        3.11350000      -0.76970000      -0.16210000
H        1.74460000      -1.93420000      -0.20160000
H        0.34190000       0.88290000      -2.84060000
H        1.21260000      -0.65350000      -3.05220000
H       -2.01010000      -0.64970000      -0.59130000
H       -0.80180000      -1.93460000      -0.36210000
