21
Properties=species:S:1:pos:R:3 gdb_112663=T pbc="F F F"
C       -0.06630000       1.63600000      -0.05370000
C        0.02490000       0.10930000       0.01150000
C       -1.33100000      -0.57820000       0.07130000
C       -1.29680000      -2.11300000       0.13290000
C       -2.55640000      -2.44980000       0.93910000
C       -2.54500000      -3.74340000       1.74820000
C       -2.72150000      -1.20750000       1.81750000
O       -3.36100000      -1.09710000       2.82410000
O       -2.01420000      -0.17680000       1.28490000
H        0.92990000       2.08640000      -0.08310000
H       -0.60690000       1.96230000      -0.94900000
H       -0.59400000       2.02910000       0.81910000
H        0.55500000      -0.27780000      -0.86830000
H        0.60460000      -0.19900000       0.89030000
H       -1.95350000      -0.24380000      -0.77120000
H       -1.27140000      -2.56510000      -0.86110000
H       -0.40320000      -2.44260000       0.67690000
H       -3.42720000      -2.45270000       0.26740000
H       -1.66220000      -3.79220000       2.39390000
H       -3.43000000      -3.79280000       2.38740000
H       -2.53590000      -4.61820000       1.09170000
