16
Properties=species:S:1:pos:R:3 gdb_133039=T pbc="F F F"
C        0.01450000       1.53260000      -0.22520000
C       -0.01470000       0.02720000       0.08370000
C       -1.41140000      -0.53890000       0.06060000
N       -2.26520000      -0.12760000       1.01360000
C       -3.49910000      -0.61260000       0.98930000
C       -3.88310000      -1.51920000      -0.00030000
F       -5.12470000      -1.98930000      -0.00140000
N       -3.07800000      -1.94230000      -0.94260000
C       -1.83530000      -1.44760000      -0.90940000
H        1.03370000       1.92310000      -0.15300000
H       -0.35670000       1.73570000      -1.23490000
H       -0.61550000       2.07690000       0.48330000
H        0.60970000      -0.51730000      -0.63260000
H        0.41220000      -0.14480000       1.07830000
H       -4.20050000      -0.29220000       1.75420000
H       -1.15600000      -1.79180000      -1.68480000
