19
Properties=species:S:1:pos:R:3 gdb_105995=T pbc="F F F"
C        0.15870000       1.25780000      -0.17390000
O       -0.16950000      -0.07620000       0.19220000
C        0.56000000      -0.55350000       1.23800000
C        0.55840000      -0.22510000       2.77660000
C        2.01590000      -0.65610000       2.85310000
C        0.91050000      -1.68000000       3.05810000
C        0.90520000      -1.99570000       1.52650000
C        0.60030000      -3.23600000       0.75480000
C        2.03410000      -0.96280000       1.32910000
H        1.21700000       1.34240000      -0.45340000
H       -0.46820000       1.51590000      -1.02990000
H       -0.04570000       1.95940000       0.64600000
H        0.01110000       0.47580000       3.39320000
H        2.78870000      -0.32330000       3.53390000
H        0.66900000      -2.28560000       3.92290000
H       -0.41870000      -3.58960000       0.95190000
H        0.68040000      -3.04470000      -0.32040000
H        1.29270000      -4.04790000       1.00570000
H        2.81670000      -0.95790000       0.58180000
