17
Properties=species:S:1:pos:R:3 gdb_130219=T pbc="F F F"
N        0.42530000       1.32330000      -0.51880000
C        0.24640000      -0.00300000      -0.17160000
N       -0.95860000      -0.50420000       0.10730000
N       -0.70290000      -1.80060000       0.31340000
N        0.55370000      -2.18040000       0.18730000
C        1.20470000      -1.05230000      -0.11590000
C        2.69610000      -1.05910000      -0.28320000
C        3.24730000      -0.24910000      -1.45580000
O        3.27960000       1.13100000      -1.07860000
H        1.38640000       1.63400000      -0.45290000
H       -0.24790000       1.94940000      -0.10250000
H       -1.43580000      -2.45150000       0.53660000
H        3.19190000      -0.68470000       0.62320000
H        3.00450000      -2.10260000      -0.39690000
H        4.26620000      -0.59250000      -1.68440000
H        2.62780000      -0.39830000      -2.35040000
H        3.48300000       1.65210000      -1.86130000
