18
Properties=species:S:1:pos:R:3 gdb_35902=T pbc="F F F"
C       -0.00230000      -1.19610000      -0.09130000
C       -0.01120000       0.00030000       0.01080000
C        0.01030000       1.45960000       0.07490000
O       -0.69900000       1.87980000       1.23060000
C       -0.68980000       3.29120000       1.37610000
C        0.69840000       3.81560000       1.75740000
C        1.77100000       3.19560000       0.87240000
N        2.22000000       1.84660000       1.26670000
C        1.43700000       2.00420000       0.04290000
H        0.00020000      -2.25560000      -0.16350000
H       -0.50200000       1.85650000      -0.82220000
H       -1.02700000       3.76460000       0.43810000
H       -1.42650000       3.51970000       2.15090000
H        0.71010000       4.90700000       1.66050000
H        0.91440000       3.57150000       2.80200000
H        2.52340000       3.87420000       0.47750000
H        3.20150000       1.71330000       1.03990000
H        1.93220000       1.88040000      -0.91780000
