21
Properties=species:S:1:pos:R:3 gdb_105871=T pbc="F F F"
C       -0.29810000       1.51670000      -0.04170000
C        0.04720000       0.03230000      -0.07350000
C        1.25290000      -0.49150000      -0.92170000
C        1.79070000      -1.23170000       0.31050000
C        2.07260000      -0.26050000       1.41530000
O        2.52990000       1.04690000       1.19840000
C        0.64230000      -0.64170000       1.17880000
C       -0.19820000      -1.26260000       2.25640000
O       -0.91710000      -0.28480000       3.00250000
H        0.58050000       2.12030000       0.19300000
H       -0.69930000       1.84380000      -1.00790000
H       -1.06090000       1.70690000       0.72050000
H       -0.84560000      -0.53660000      -0.35750000
H        0.95280000      -1.15450000      -1.73500000
H        1.92020000       0.27760000      -1.32220000
H        2.20240000      -2.23520000       0.31460000
H        2.49160000      -0.72760000       2.30970000
H        3.42930000       0.99390000       0.85730000
H       -0.96460000      -1.91310000       1.81930000
H        0.42660000      -1.89050000       2.91310000
H       -0.27520000       0.35820000       3.32280000
