18
Properties=species:S:1:pos:R:3 gdb_109639=T pbc="F F F"
C       -0.32660000       1.07450000      -0.10730000
O        0.59600000       0.00750000       0.07190000
C        0.98290000      -0.61300000      -1.10320000
C        1.56200000      -1.97070000      -0.89840000
O        1.62250000      -2.47540000       0.38820000
C        0.18000000      -1.84460000      -1.58920000
C       -1.05590000      -2.30640000      -0.83760000
C        0.16870000      -2.04260000      -3.01120000
N        0.17580000      -2.18840000      -4.16020000
H        0.10140000       1.85750000      -0.74700000
H       -1.26390000       0.72250000      -0.55450000
H       -0.52770000       1.48840000       0.88230000
H        1.39660000       0.04580000      -1.86600000
H        2.39140000      -2.28760000      -1.52280000
H        1.39260000      -1.75330000       0.98800000
H       -0.96970000      -2.06220000       0.22120000
H       -1.95720000      -1.83220000      -1.23590000
H       -1.17160000      -3.38990000      -0.92690000
