21
Properties=species:S:1:pos:R:3 gdb_59504=T pbc="F F F"
C       -0.36090000       1.25840000       0.01020000
C        0.15020000      -0.18110000      -0.14510000
C        1.07710000      -0.31160000      -1.36260000
C        0.85230000      -0.64210000       1.12200000
C        0.05380000      -1.10220000       2.32710000
C        0.85880000      -2.08820000       1.54390000
O        0.10740000      -3.02440000       0.79010000
C        0.80120000      -3.92000000       0.05990000
O        0.27080000      -4.73370000      -0.63450000
H        0.46980000       1.95470000       0.17620000
H       -0.89150000       1.58410000      -0.89040000
H       -1.04600000       1.34860000       0.85870000
H       -0.71440000      -0.83670000      -0.30420000
H        1.96920000       0.31530000      -1.24530000
H        1.41100000      -1.34380000      -1.50750000
H        0.56760000       0.00540000      -2.27810000
H        1.77280000      -0.10310000       1.34070000
H        0.38040000      -0.84000000       3.32690000
H       -1.02220000      -1.16720000       2.20270000
H        1.75560000      -2.51400000       1.98540000
H        1.89670000      -3.82300000       0.18780000
