14
Properties=species:S:1:pos:R:3 gdb_124261=T pbc="F F F"
C        0.09730000       1.50580000       0.00260000
C        0.06760000      -0.00140000       0.04040000
O        0.06560000      -0.64710000       1.06470000
C        0.03890000      -0.72920000      -1.28580000
C        0.01060000      -2.12860000      -1.32630000
N       -0.01490000      -2.79400000      -2.47680000
N       -0.01310000      -2.09450000      -3.61150000
C        0.01420000      -0.76510000      -3.53070000
N        0.04080000      -0.02910000      -2.41470000
H        0.97330000       1.85390000      -0.55380000
H       -0.77580000       1.88890000      -0.53490000
H        0.11610000       1.89040000       1.02220000
H        0.00860000      -2.71370000      -0.41410000
H        0.01470000      -0.23520000      -4.47880000
