21
Properties=species:S:1:pos:R:3 gdb_115221=T pbc="F F F"
C        0.07770000       1.37920000      -0.09910000
O        0.00220000      -0.01030000       0.12210000
C       -1.30540000      -0.55330000       0.07540000
C       -1.83150000      -0.70080000      -1.36170000
C       -3.21820000      -1.37090000      -1.38830000
C       -3.22770000      -2.68940000      -0.62350000
O       -3.69170000      -3.70630000      -1.08280000
C       -2.61420000      -2.61910000       0.76990000
C       -1.24440000      -1.91720000       0.76530000
H        1.11660000       1.67400000       0.06800000
H       -0.20220000       1.66420000      -1.12370000
H       -0.56470000       1.93660000       0.60090000
H       -1.99280000       0.10430000       0.63950000
H       -1.88760000       0.27370000      -1.85690000
H       -1.11150000      -1.30530000      -1.92680000
H       -3.95020000      -0.70640000      -0.90630000
H       -3.56320000      -1.55510000      -2.40810000
H       -3.31020000      -2.05070000       1.40420000
H       -2.55190000      -3.63110000       1.17590000
H       -0.50830000      -2.53470000       0.23650000
H       -0.87570000      -1.79130000       1.78760000
