18
Properties=species:S:1:pos:R:3 gdb_78577=T pbc="F F F"
C       -0.17200000       1.62440000      -0.09590000
C       -0.05040000       0.10980000      -0.03140000
C        1.18190000      -0.58820000      -0.65320000
C        2.09560000      -0.25460000       0.57700000
C        2.55020000      -1.73120000       0.71220000
C        2.93660000      -2.20910000       2.03190000
N        3.23710000      -2.58400000       3.08390000
C        1.05370000      -1.81050000       0.31660000
C        0.67120000      -0.55130000       1.16620000
H        0.77030000       2.12050000       0.15830000
H       -0.46140000       1.95210000      -1.10030000
H       -0.93640000       1.98470000       0.60090000
H       -1.00320000      -0.36920000      -0.28960000
H        1.50490000      -0.63150000      -1.69530000
H        2.70520000       0.63440000       0.73190000
H        3.26230000      -2.08190000      -0.04130000
H        0.44830000      -2.70430000       0.16660000
H        0.40430000      -0.55070000       2.22350000
