19
Properties=species:S:1:pos:R:3 gdb_112882=T pbc="F F F"
C       -0.04400000       1.59910000       0.06370000
C       -0.04820000       0.06960000       0.04050000
C        0.74660000      -0.50590000      -1.12360000
O        2.13300000      -0.21020000      -1.00230000
C        2.83710000      -1.29400000      -1.56040000
C        4.15770000      -1.49360000      -0.85820000
O        1.99490000      -2.44860000      -1.39280000
C        0.71980000      -2.03230000      -1.18440000
O       -0.21440000      -2.76890000      -1.06970000
H        0.97660000       1.98470000       0.13920000
H       -0.49270000       2.01020000      -0.84740000
H       -0.61440000       1.97640000       0.91710000
H        0.37080000      -0.32740000       0.97200000
H       -1.06830000      -0.32050000      -0.04260000
H        0.35170000      -0.11840000      -2.07940000
H        2.97140000      -1.15010000      -2.64520000
H        3.98740000      -1.67410000       0.20580000
H        4.68940000      -2.34460000      -1.29030000
H        4.77070000      -0.59630000      -0.97570000
