19
Properties=species:S:1:pos:R:3 gdb_96940=T pbc="F F F"
C       -0.27930000       1.39570000      -0.25570000
N       -0.17170000      -0.05570000      -0.30450000
C       -1.14500000      -0.75500000       0.03940000
O       -2.40490000      -0.38340000       0.53300000
C       -2.76930000      -1.77160000       0.77570000
C       -3.51680000      -2.45190000      -0.39550000
C       -4.53430000      -1.65260000      -1.18770000
N       -2.20620000      -2.68320000      -1.08500000
C       -1.44890000      -2.23730000       0.11940000
H        0.57770000       1.79760000       0.29490000
H       -0.21890000       1.79250000      -1.27540000
H       -1.20310000       1.76090000       0.20780000
H       -3.09320000      -1.92640000       1.80380000
H       -3.96210000      -3.38790000      -0.02860000
H       -4.11590000      -0.68570000      -1.47510000
H       -4.81730000      -2.19120000      -2.09750000
H       -5.44050000      -1.48250000      -0.59620000
H       -2.03620000      -3.65200000      -1.32620000
H       -0.70650000      -2.91310000       0.54150000
