17
Properties=species:S:1:pos:R:3 gdb_68972=T pbc="F F F"
O        0.05440000       1.33260000      -0.22970000
C        0.01660000      -0.04080000      -0.04800000
C       -0.38290000      -0.84650000      -1.23470000
C       -1.32060000      -0.82780000      -0.01430000
C       -1.07580000      -1.93090000       0.96830000
C        0.14970000      -1.87170000       1.49400000
C        0.93650000      -0.68260000       0.99230000
C       -2.58750000      -0.17340000      -0.09350000
C       -3.65130000       0.38880000      -0.13230000
H       -0.37020000       1.75140000       0.52810000
H       -0.71400000      -0.27020000      -2.09100000
H        0.12440000      -1.78010000      -1.45460000
H       -1.82900000      -2.67800000       1.18780000
H        0.56050000      -2.58570000       2.19800000
H        1.90290000      -0.96500000       0.55750000
H        1.15770000       0.03000000       1.79980000
H       -4.59340000       0.87570000      -0.18030000
