18
Properties=species:S:1:pos:R:3 gdb_117867=T pbc="F F F"
C       -0.10640000       1.51870000      -0.05590000
C       -0.02890000       0.00620000       0.05410000
O       -1.35350000      -0.50570000      -0.00740000
C       -1.43730000      -1.92060000       0.02430000
C       -1.40740000      -2.47700000       1.45830000
C       -2.67270000      -2.30640000      -0.66060000
C       -3.68880000      -2.65290000      -1.21330000
C       -4.83850000      -3.04030000      -1.83980000
N       -5.81580000      -3.37340000      -2.37230000
H        0.89730000       1.95200000      -0.01760000
H       -0.57810000       1.81060000      -0.99790000
H       -0.69570000       1.93330000       0.76660000
H        0.57160000      -0.41450000      -0.76880000
H        0.45920000      -0.28420000       0.99710000
H       -0.59730000      -2.35510000      -0.54440000
H       -1.49640000      -3.56670000       1.44980000
H       -0.46410000      -2.21220000       1.94260000
H       -2.23350000      -2.05750000       2.03670000
