15
Properties=species:S:1:pos:R:3 gdb_131079=T pbc="F F F"
O        0.47600000       0.17710000       0.47790000
C        0.62140000       1.23940000      -0.04670000
O        0.48190000       2.40340000       0.61800000
C        0.77450000       3.60870000      -0.11350000
C        2.22950000       3.95030000      -0.06730000
C        3.11320000       3.73540000       0.97420000
N        4.30530000       4.22790000       0.56640000
N        4.27210000       4.75480000      -0.67090000
C        3.01200000       4.58640000      -1.05910000
H        0.86720000       1.38150000      -1.11710000
H        0.43430000       3.51250000      -1.15240000
H        0.15420000       4.37270000       0.36380000
H        2.98110000       3.26780000       1.93660000
H        5.17780000       4.21800000       1.06760000
H        2.70310000       4.92620000      -2.03740000
