20
Properties=species:S:1:pos:R:3 gdb_99894=T pbc="F F F"
C        0.07950000       1.43000000       0.27140000
C        0.10110000      -0.06670000      -0.04530000
C        0.69670000      -0.45180000      -1.43060000
C       -0.12770000       0.12830000      -2.60240000
C        2.07680000       0.04950000      -1.52200000
N        3.15260000       0.46330000      -1.60880000
C        0.68870000      -1.97990000      -1.53720000
C        1.77520000      -2.78200000      -2.11020000
O        1.57250000      -2.69950000      -0.69230000
H        1.08430000       1.86030000       0.22360000
H       -0.56200000       1.98920000      -0.41630000
H       -0.30540000       1.59210000       1.28240000
H        0.67760000      -0.59950000       0.71730000
H       -0.91770000      -0.47210000      -0.01220000
H       -0.12650000       1.21950000      -2.58610000
H        0.27940000      -0.19810000      -3.56290000
H       -1.16380000      -0.21690000      -2.52920000
H       -0.32550000      -2.38330000      -1.57780000
H        1.54680000      -3.74850000      -2.55590000
H        2.67410000      -2.29080000      -2.47490000
