21
Properties=species:S:1:pos:R:3 gdb_73685=T pbc="F F F"
C       -0.06520000       1.61730000       0.13770000
C        0.06000000       0.10190000       0.06090000
C       -1.29730000      -0.62610000      -0.04090000
O       -1.10500000      -1.90030000       0.55310000
C       -0.30910000      -1.65930000       1.70640000
C        0.73350000      -0.60110000       1.29290000
C        2.03800000      -1.17680000       0.70940000
C        1.69960000      -1.32990000      -0.77600000
O        0.88120000      -0.20610000      -1.07270000
H        0.92260000       2.07650000       0.23150000
H       -0.53130000       2.00770000      -0.77280000
H       -0.67660000       1.91940000       0.99320000
H       -2.07990000      -0.06330000       0.49630000
H       -1.60510000      -0.76670000      -1.07900000
H       -0.93590000      -1.27950000       2.53060000
H        0.12750000      -2.61180000       2.01870000
H        0.92980000       0.09770000       2.10850000
H        2.85450000      -0.45830000       0.83240000
H        2.34020000      -2.11550000       1.18190000
H        2.57190000      -1.29100000      -1.43510000
H        1.16070000      -2.26950000      -0.96280000
