20
Properties=species:S:1:pos:R:3 gdb_7775=T pbc="F F F"
C       -0.02070000       1.53550000       0.05570000
C       -0.01110000       0.03310000      -0.02310000
C       -0.02230000      -0.62590000      -1.18470000
C        0.00740000      -2.12670000      -1.31510000
C        0.37910000      -2.82040000       0.00260000
C       -0.36280000      -2.18290000       1.17110000
O       -0.03640000      -2.92030000       2.34280000
C        0.01960000      -0.70370000       1.29940000
H        0.84910000       1.90820000       0.61280000
H       -0.00880000       1.99400000      -0.93680000
H       -0.90810000       1.90010000       0.59000000
H       -0.05580000      -0.05800000      -2.11280000
H       -0.97310000      -2.48290000      -1.66590000
H        0.71570000      -2.41590000      -2.10160000
H        0.15080000      -3.88980000      -0.03720000
H        1.45630000      -2.72720000       0.18750000
H       -1.44650000      -2.24850000       0.97260000
H       -0.48430000      -2.50760000       3.08830000
H        1.02460000      -0.64350000       1.74270000
H       -0.65160000      -0.20460000       2.01400000
