20
Properties=species:S:1:pos:R:3 gdb_113969=T pbc="F F F"
C       -0.44900000       0.91150000      -0.00210000
O        0.41190000      -0.19920000       0.20220000
C        0.93530000      -0.70310000      -0.97510000
C        1.25300000      -2.17050000      -0.97220000
C        0.10460000      -1.64740000      -1.80990000
O       -1.21350000      -1.85390000      -1.37970000
C       -1.69180000      -3.11560000      -1.50140000
N       -2.89910000      -3.36230000      -1.25890000
C       -3.33650000      -4.73620000      -1.39050000
H        0.07880000       1.74090000      -0.49660000
H       -1.32330000       0.63270000      -0.60110000
H       -0.77600000       1.24100000       0.98640000
H        1.59650000      -0.02340000      -1.51630000
H        2.14750000      -2.52940000      -1.46810000
H        0.98030000      -2.69120000      -0.06100000
H        0.21680000      -1.61990000      -2.89180000
H       -0.93750000      -3.85360000      -1.81260000
H       -4.15350000      -4.79300000      -2.11880000
H       -2.54250000      -5.43290000      -1.70640000
H       -3.73970000      -5.08680000      -0.43360000
