18
Properties=species:S:1:pos:R:3 gdb_117594=T pbc="F F F"
C        0.02120000       1.61540000       0.00500000
C       -0.01020000       0.08380000       0.01130000
C        0.68930000      -0.50760000      -1.21550000
C        0.69880000      -2.07150000      -1.25610000
N       -0.61600000      -2.72620000      -1.27120000
C        1.41880000      -2.48560000      -2.48210000
N        1.95770000      -2.75220000      -3.46750000
C        1.44310000      -2.58210000      -0.08210000
N        2.00550000      -2.93350000       0.86270000
H        1.04990000       1.99000000       0.00890000
H       -0.47770000       2.02090000      -0.88180000
H       -0.48460000       2.01880000       0.88670000
H        0.47100000      -0.29120000       0.92210000
H       -1.05270000      -0.25580000       0.04330000
H        0.19740000      -0.17360000      -2.13680000
H        1.72610000      -0.15670000      -1.26460000
H       -1.11620000      -2.50850000      -0.41530000
H       -1.15990000      -2.36970000      -2.05200000
