20
Properties=species:S:1:pos:R:3 gdb_64928=T pbc="F F F"
C        0.09200000       1.32960000      -0.47600000
C        0.03930000      -0.10670000       0.02510000
C        1.35740000      -0.83290000       0.26390000
C        0.53190000      -0.39260000       1.43780000
C       -1.06920000      -0.88720000      -0.45830000
C       -2.01090000      -1.51330000      -0.88250000
C       -3.11820000      -2.28810000      -1.36540000
C       -3.60400000      -2.10220000      -2.76650000
N       -2.90470000      -3.33620000      -2.39810000
H        0.96190000       1.85040000      -0.06370000
H        0.16240000       1.36090000      -1.56790000
H       -0.80670000       1.87970000      -0.18000000
H        1.39620000      -1.89080000       0.03360000
H        2.26620000      -0.28580000       0.03680000
H        0.87180000       0.45810000       2.01870000
H        0.00730000      -1.14980000       2.00770000
H       -3.84790000      -2.58270000      -0.61510000
H       -4.66300000      -2.21980000      -2.97870000
H       -3.09020000      -1.36550000      -3.37670000
H       -1.93830000      -3.28410000      -2.71220000
