20
Properties=species:S:1:pos:R:3 gdb_114710=T pbc="F F F"
C        0.20060000       1.24690000      -0.48180000
C        0.28630000      -0.22710000      -0.07720000
C        0.66920000      -0.44590000       1.40480000
C        0.62040000      -1.92980000       1.86220000
C        2.07110000      -2.38720000       1.95390000
N        2.81180000      -2.14400000       0.71210000
C        2.97350000      -1.20640000       1.86750000
C        2.11070000       0.01290000       1.70200000
O        2.47670000       1.15400000       1.84370000
H        1.14830000       1.76490000      -0.31490000
H       -0.06030000       1.34140000      -1.54050000
H       -0.56570000       1.77180000       0.09980000
H       -0.68610000      -0.70870000      -0.24110000
H        1.00580000      -0.75890000      -0.70780000
H        0.00640000       0.17150000       2.02050000
H        0.15430000      -2.01290000       2.84970000
H        0.04800000      -2.55760000       1.17200000
H        2.33270000      -3.24490000       2.56530000
H        3.63770000      -2.73830000       0.68440000
H        3.93250000      -1.12560000       2.36470000
