16
Properties=species:S:1:pos:R:3 gdb_45427=T pbc="F F F"
N       -0.05660000       1.28550000      -0.04780000
C       -0.01730000       0.02690000       0.00810000
O        1.13340000      -0.71900000       0.05620000
C        0.83510000      -2.12750000       0.02710000
C       -0.00790000      -2.45350000       1.25770000
O       -1.20200000      -1.66770000       1.20780000
C       -1.23330000      -0.87330000       0.01800000
C       -1.13600000      -1.80860000      -1.19030000
O        0.15090000      -2.45450000      -1.14820000
H        0.88890000       1.67510000      -0.05540000
H        1.79320000      -2.64620000       0.00940000
H       -0.26410000      -3.52000000       1.25920000
H        0.54740000      -2.21690000       2.17300000
H       -2.15160000      -0.28970000       0.03180000
H       -1.92820000      -2.56460000      -1.13940000
H       -1.21690000      -1.26020000      -2.13470000
