18
Properties=species:S:1:pos:R:3 gdb_84584=T pbc="F F F"
C       -0.29480000       1.56980000      -0.03330000
C       -0.01140000       0.06010000      -0.02240000
C        0.84190000      -0.41850000      -1.18100000
C        1.85860000      -1.19990000      -0.81750000
C        1.92060000      -1.38150000       0.67710000
N        2.86920000      -0.50520000       1.40030000
C        1.92020000       0.42590000       1.76440000
O        2.00130000       1.50210000       2.29400000
C        0.77220000      -0.46270000       1.20820000
H        0.62960000       2.15030000       0.01240000
H       -0.83660000       1.84890000      -0.94300000
H       -0.90640000       1.85770000       0.82670000
H       -0.98070000      -0.45720000      -0.06380000
H        0.61580000      -0.13010000      -2.20330000
H        2.57630000      -1.65300000      -1.49290000
H        1.96340000      -2.42190000       1.01210000
H        3.86550000      -0.38120000       1.28100000
H        0.13850000      -0.87590000       1.99350000
