27
Properties=species:S:1:pos:R:3 gdb_104714=T pbc="F F F"
C        0.72690000      -0.13190000       1.28670000
C        0.00060000      -0.05450000      -0.06140000
C       -1.41700000      -0.64080000      -0.06480000
C       -2.37010000       0.05560000       0.92370000
C       -2.54310000       1.56420000       0.71520000
C       -2.05640000      -0.80040000      -1.48420000
C       -2.45860000      -2.26000000      -1.13330000
C       -2.23470000      -3.34410000      -2.17710000
C       -1.49540000      -2.19650000       0.08510000
H        1.76380000       0.20530000       1.19100000
H        0.24860000       0.49360000       2.04700000
H        0.74650000      -1.15890000       1.66810000
H       -0.03120000       0.98840000      -0.40270000
H        0.59030000      -0.59490000      -0.81300000
H       -3.35310000      -0.42770000       0.85280000
H       -2.02320000      -0.13190000       1.94790000
H       -1.61680000       2.11260000       0.91220000
H       -2.85280000       1.79680000      -0.30950000
H       -3.30820000       1.96300000       1.38880000
H       -2.86240000      -0.11020000      -1.75080000
H       -1.30200000      -0.76520000      -2.27770000
H       -3.49890000      -2.29470000      -0.79250000
H       -1.19940000      -3.33300000      -2.53760000
H       -2.43280000      -4.34100000      -1.76660000
H       -2.89010000      -3.20560000      -3.04470000
H       -0.53530000      -2.67840000      -0.13110000
H       -1.86690000      -2.58500000       1.03830000
