14
Properties=species:S:1:pos:R:3 gdb_24888=T pbc="F F F"
O       -0.08810000      -0.06640000       0.00430000
C        0.00400000       1.14890000       0.00930000
N       -1.15940000       1.94480000       0.02920000
C       -1.19920000       3.31650000       0.03650000
C       -0.02390000       4.02060000       0.02390000
C        1.19920000       3.29770000       0.00340000
C        1.22500000       1.93570000      -0.00370000
C       -2.48080000       3.92790000       0.05720000
C       -3.57680000       4.42520000       0.07470000
H       -2.02660000       1.42510000       0.03850000
H       -0.04750000       5.10060000       0.02960000
H        2.13180000       3.85360000      -0.00660000
H        2.15160000       1.37570000      -0.01930000
H       -4.54020000       4.87290000       0.09010000
