18
Properties=species:S:1:pos:R:3 gdb_39462=T pbc="F F F"
C       -0.14590000       1.34640000       0.09220000
C        1.28690000       0.87970000       0.16120000
O        1.72590000       0.55370000       1.43650000
C        2.63450000      -0.53670000       1.54340000
C        1.94700000      -1.88600000       1.82020000
N        1.53990000      -2.63480000       0.63180000
C        0.57630000      -2.23280000      -0.06600000
O       -0.20620000      -1.12490000       0.18890000
C        0.22710000       0.02160000      -0.49840000
H       -0.67750000       1.31280000       1.03610000
H       -0.41980000       2.15680000      -0.57300000
H        2.03300000       1.35370000      -0.47820000
H        3.27310000      -0.60940000       0.65270000
H        3.27320000      -0.29760000       2.40040000
H        2.65750000      -2.51770000       2.36320000
H        1.09450000      -1.69070000       2.48170000
H        0.26990000      -2.79000000      -0.95420000
H        0.24330000      -0.08560000      -1.58260000
