21
Properties=species:S:1:pos:R:3 gdb_82557=T pbc="F F F"
C       -0.15660000       1.52050000      -0.00360000
C        0.02550000       0.00570000      -0.04240000
C        0.90040000      -0.55920000      -1.21970000
C        2.42190000      -0.48130000      -0.75780000
C        1.87690000      -1.45160000       0.31940000
C        1.99490000      -2.20340000       1.65650000
O        0.69420000      -1.64450000       2.04150000
C        0.92540000      -0.55950000       1.08910000
C        0.96920000      -2.04250000      -0.78850000
H        0.80810000       2.03960000       0.02370000
H       -0.69890000       1.87650000      -0.88580000
H       -0.72230000       1.82650000       0.88290000
H       -0.95500000      -0.48090000      -0.06960000
H        0.62110000      -0.26300000      -2.23200000
H        3.07560000      -0.92540000      -1.51200000
H        2.82860000       0.47520000      -0.41840000
H        1.97970000      -3.29680000       1.63230000
H        2.78770000      -1.84930000       2.32890000
H        1.42480000       0.26050000       1.62750000
H        0.04160000      -2.53470000      -0.48690000
H        1.53410000      -2.67250000      -1.48090000
