19
Properties=species:S:1:pos:R:3 gdb_110907=T pbc="F F F"
C        0.07080000       1.40000000       0.04410000
O       -0.04780000      -0.01160000       0.08260000
C        0.64300000      -0.60670000       1.14880000
C        0.27370000      -2.09440000       1.24800000
C        1.33610000      -2.65100000       2.22060000
C        2.19150000      -2.35510000       0.97250000
O        1.03040000      -2.68310000       0.13940000
C        2.19350000      -0.81570000       0.86160000
O        2.57660000      -0.36800000      -0.41190000
H        1.10990000       1.71190000      -0.11210000
H       -0.54000000       1.74760000      -0.79250000
H       -0.30810000       1.85490000       0.97220000
H        0.45280000      -0.06480000       2.08630000
H       -0.78150000      -2.36320000       1.26070000
H        1.54260000      -2.11480000       3.15130000
H        1.21420000      -3.72020000       2.39360000
H        3.10100000      -2.89030000       0.70140000
H        2.84560000      -0.32710000       1.58960000
H        1.90770000      -0.71450000      -1.01800000
