21
Properties=species:S:1:pos:R:3 gdb_90437=T pbc="F F F"
C        0.19020000       1.51980000      -0.40210000
C        0.12500000       0.06400000       0.01430000
O        0.83560000      -0.84560000      -0.87370000
C        1.30520000      -1.63160000       0.24680000
C        2.79140000      -1.37230000       0.57760000
C        3.73020000      -1.05860000      -0.57900000
C        2.33900000      -0.19470000       1.52070000
O        2.84490000       1.09700000       1.28720000
C        0.83250000      -0.53300000       1.24400000
H        1.21020000       1.89100000      -0.49970000
H       -0.31540000       1.64800000      -1.36490000
H       -0.32550000       2.14150000       0.33710000
H       -0.93560000      -0.23400000       0.04480000
H        0.93270000      -2.65970000       0.21810000
H        3.20050000      -2.19190000       1.17830000
H        3.27490000      -0.34750000      -1.27490000
H        4.67640000      -0.64550000      -0.21540000
H        3.95620000      -1.96330000      -1.15230000
H        2.57520000      -0.40830000       2.56710000
H        2.96020000       1.21070000       0.33920000
H        0.21780000      -0.71520000       2.12530000
