14
Properties=species:S:1:pos:R:3 gdb_131108=T pbc="F F F"
O        0.73500000       1.52480000      -0.17190000
C        0.19100000       0.22670000       0.01660000
C        0.30960000      -0.60310000      -1.20020000
N        0.41930000      -1.23590000      -2.16000000
C        0.79550000      -0.47650000       1.20110000
C        1.16680000      -1.78290000       1.44340000
C        1.63220000      -1.77390000       2.77620000
N        1.56380000      -0.56160000       3.31970000
N        1.04470000       0.20820000       2.34790000
H        1.67910000       1.42880000      -0.35050000
H       -0.87860000       0.40480000       0.18640000
H        1.10830000      -2.61100000       0.75630000
H        2.01840000      -2.59900000       3.35590000
H        0.92850000       1.19710000       2.49730000
