16
Properties=species:S:1:pos:R:3 gdb_67185=T pbc="F F F"
O       -0.09320000       1.42740000      -0.01120000
C        0.02250000       0.05880000      -0.01350000
C       -1.06190000      -0.99220000       0.08510000
C       -0.50690000      -1.71250000      -1.13870000
C        0.80680000      -0.84470000      -1.02470000
C        1.78030000      -1.67120000      -0.18440000
O        2.76660000      -2.27530000      -0.54090000
N        1.22660000      -1.68020000       1.08360000
C        0.04850000      -0.86480000       1.15890000
H        0.70770000       1.80550000       0.37100000
H       -2.10300000      -0.88200000       0.36350000
H       -0.38500000      -2.79920000      -1.09440000
H       -1.06100000      -1.44270000      -2.03950000
H        1.22080000      -0.43250000      -1.94040000
H        1.46650000      -2.39850000       1.74770000
H       -0.24930000      -0.50070000       2.13410000
