16
Properties=species:S:1:pos:R:3 gdb_123831=T pbc="F F F"
C       -0.02010000       1.40610000       0.01640000
C        1.41530000       1.96670000       0.04040000
C        2.19260000       1.25170000      -1.02160000
C        1.73220000       0.10200000      -1.57780000
C        0.45440000      -0.57800000      -1.21020000
O       -0.03790000      -0.01740000      -0.00500000
O        2.56790000      -0.35330000      -2.51700000
N        3.65670000       0.52840000      -2.60280000
C        3.41770000       1.46190000      -1.71320000
H       -0.56960000       1.69440000       0.91560000
H       -0.55750000       1.80510000      -0.85880000
H        1.38710000       3.04920000      -0.13000000
H        1.86180000       1.81030000       1.03020000
H       -0.28380000      -0.48180000      -2.02490000
H        0.60520000      -1.64620000      -1.02460000
H        4.13560000       2.26280000      -1.59980000
