19
Properties=species:S:1:pos:R:3 gdb_40419=T pbc="F F F"
C        0.36360000       1.57700000       0.15160000
N        1.16930000       0.44770000      -0.34480000
C       -0.21960000       0.21330000       0.08950000
C       -0.39340000      -0.63860000       1.30590000
C       -1.11500000      -1.94540000       1.25290000
N       -1.75910000      -0.78480000       1.87910000
C       -1.60820000      -0.72260000       3.35110000
C       -0.12320000      -0.58120000       3.60960000
C        0.54720000      -0.51140000       2.46020000
H        0.68750000       1.97940000       1.10740000
H        0.00360000       2.31910000      -0.55590000
H        1.22220000       0.47020000      -1.35910000
H       -0.97000000       0.04040000      -0.67880000
H       -1.58970000      -2.27260000       0.33020000
H       -0.74120000      -2.74670000       1.88720000
H       -2.17490000       0.13600000       3.73590000
H       -2.04050000      -1.61880000       3.81480000
H        0.30860000      -0.56530000       4.60370000
H        1.61430000      -0.39500000       2.32610000
