20
Properties=species:S:1:pos:R:3 gdb_18708=T pbc="F F F"
C        0.09930000       1.57080000       0.00480000
C        0.03140000       0.03850000       0.00810000
C        0.54370000      -0.54470000      -1.32800000
C        0.76470000      -2.03510000      -1.28460000
C        1.07430000      -2.67880000      -0.15730000
C        1.22850000      -1.98250000       1.14280000
C        2.21700000      -0.82550000       1.24930000
C        0.73870000      -0.55210000       1.21850000
H        1.13810000       1.91360000      -0.05880000
H       -0.44650000       1.99070000      -0.84720000
H       -0.33360000       1.99060000       0.91910000
H       -1.02440000      -0.25530000       0.09790000
H       -0.16820000      -0.29030000      -2.12230000
H        1.47920000      -0.03780000      -1.61010000
H        0.68700000      -2.58230000      -2.22000000
H        1.23610000      -3.75340000      -0.16870000
H        1.11750000      -2.59940000       2.02870000
H        2.74270000      -0.69090000       2.18870000
H        2.81360000      -0.60950000       0.36970000
H        0.30010000      -0.25340000       2.16740000
