20
Properties=species:S:1:pos:R:3 gdb_64348=T pbc="F F F"
C       -0.02100000       1.56460000       0.02160000
C       -0.00560000       0.03390000      -0.00520000
O       -1.34700000      -0.46900000      -0.04780000
C        0.66480000      -0.50440000      -1.27520000
C        0.60200000      -2.02960000      -1.31700000
N        1.07990000      -2.60930000      -0.06670000
C        0.97110000      -2.04780000       1.17560000
O        1.13200000      -2.69520000       2.19410000
C        0.73130000      -0.54060000       1.21460000
H        0.99090000       1.97770000      -0.03970000
H       -0.60750000       1.94830000      -0.81800000
H       -0.47440000       1.93060000       0.95030000
H       -1.78170000      -0.23110000       0.77800000
H        0.16210000      -0.10150000      -2.15970000
H        1.70620000      -0.16550000      -1.29750000
H       -0.43250000      -2.33840000      -1.51180000
H        1.22330000      -2.40700000      -2.13640000
H        1.19750000      -3.61260000      -0.03420000
H        1.71350000      -0.06240000       1.31590000
H        0.18870000      -0.32510000       2.14080000
