25
Properties=species:S:1:pos:R:3 gdb_86420=T pbc="F F F"
C       -0.28450000       1.52490000       0.09810000
C        0.14190000       0.06220000      -0.02360000
C        1.23240000      -0.22340000      -1.07460000
C        1.68430000      -1.66190000      -0.75570000
C        2.97050000      -2.11350000      -1.44700000
C        1.69370000      -1.70770000       0.78900000
C        2.85320000      -0.96990000       1.52470000
C        1.86600000       0.13350000       1.99330000
C        0.69490000      -0.59130000       1.26310000
H        0.55690000       2.17230000       0.36580000
H       -0.69240000       1.89370000      -0.84920000
H       -1.05810000       1.65180000       0.86350000
H       -0.74410000      -0.52090000      -0.31410000
H        0.87330000      -0.10810000      -2.10260000
H        2.07220000       0.47520000      -0.95040000
H        0.87620000      -2.33200000      -1.08320000
H        3.81950000      -1.47460000      -1.18290000
H        3.23030000      -3.14180000      -1.17220000
H        2.86210000      -2.07930000      -2.53650000
H        1.51350000      -2.71890000       1.16210000
H        3.30410000      -1.54820000       2.33480000
H        3.66300000      -0.61610000       0.88090000
H        1.74090000       0.19900000       3.07690000
H        2.09380000       1.13770000       1.62580000
H       -0.11010000      -0.90420000       1.93280000
