20
Properties=species:S:1:pos:R:3 gdb_41262=T pbc="F F F"
C       -0.02510000       1.47560000       0.19280000
C        1.47290000       1.65130000      -0.23610000
C        1.41630000       0.21990000      -0.76850000
C        2.36830000      -0.94340000      -1.08110000
C        1.26140000      -1.54000000      -2.00650000
C       -0.00060000      -2.07230000      -1.28250000
N       -0.59790000      -0.69350000      -1.10860000
C        0.12410000      -0.06900000       0.03720000
C        0.53260000      -0.16480000      -2.00440000
H       -0.28980000       1.83400000       1.18920000
H       -0.73430000       1.88810000      -0.52880000
H        1.71740000       2.45310000      -0.93900000
H        2.12980000       1.74100000       0.63590000
H        3.23050000      -0.63010000      -1.68140000
H        2.72660000      -1.54650000      -0.24010000
H        1.58320000      -2.06550000      -2.90530000
H       -0.63600000      -2.65970000      -1.95220000
H        0.13420000      -2.63150000      -0.34930000
H        0.10390000      -0.64040000       0.97040000
H        0.30970000       0.45950000      -2.86920000
