20
Properties=species:S:1:pos:R:3 gdb_65164=T pbc="F F F"
C        0.26360000       1.56690000       0.07130000
C        0.13450000       0.05540000       0.02820000
C        1.18990000      -0.75230000      -0.68180000
C        1.13110000      -0.75540000       0.82730000
N       -1.18200000      -0.55900000      -0.01390000
C       -2.38900000       0.20280000       0.22410000
C       -2.10950000      -0.35540000      -1.14310000
C       -1.82290000       0.51120000      -2.25360000
C       -1.60420000       1.18020000      -3.22980000
H        1.32080000       1.84670000       0.08170000
H       -0.19920000       2.04420000      -0.79650000
H       -0.19040000       1.97980000       0.97950000
H        0.86160000      -1.64720000      -1.19740000
H        1.99560000      -0.21710000      -1.17190000
H        1.89890000      -0.22090000       1.37660000
H        0.75560000      -1.64890000       1.31080000
H       -3.13940000      -0.26990000       0.85380000
H       -2.32310000       1.28300000       0.32420000
H       -2.62290000      -1.27140000      -1.42950000
H       -1.40640000       1.78100000      -4.08280000
