18
Properties=species:S:1:pos:R:3 gdb_87691=T pbc="F F F"
C        0.07670000       1.47180000      -0.36650000
C        0.13610000      -0.01540000      -0.12980000
N        1.46040000      -0.62640000      -0.04630000
C        0.63610000      -0.57530000       1.16580000
C        0.96880000       0.10060000       2.50730000
C        0.32360000      -1.10030000       3.26220000
O       -0.81500000      -0.73440000       4.00880000
C        0.02990000      -1.75010000       1.87840000
O       -0.47730000      -2.78050000       1.52610000
H        0.90650000       1.97630000       0.13450000
H        0.14400000       1.69140000      -1.43730000
H       -0.86530000       1.88740000       0.00600000
H       -0.65010000      -0.60280000      -0.60290000
H        1.44460000      -1.57530000      -0.41820000
H        2.03470000       0.23430000       2.69780000
H        0.43920000       1.03760000       2.68990000
H        1.04090000      -1.68540000       3.85750000
H       -1.30690000      -1.53960000       4.20560000
