16
Properties=species:S:1:pos:R:3 gdb_14845=T pbc="F F F"
C       -0.09670000       1.57420000      -0.19970000
N       -0.19350000       0.26370000       0.43180000
C       -1.36350000      -0.48290000       0.09160000
C       -1.54150000      -1.23740000      -1.26250000
O       -1.89900000      -2.45440000      -0.56160000
C       -1.51560000      -1.90760000       0.70980000
C       -0.26470000      -2.48970000       1.21350000
N        0.73520000      -2.93130000       1.58960000
H        0.82250000       2.06500000       0.13020000
H       -0.09590000       1.55230000      -1.30270000
H       -0.94040000       2.19570000       0.12060000
H        0.64740000      -0.28090000       0.27210000
H       -2.24550000       0.12260000       0.32050000
H       -2.34330000      -0.90930000      -1.93090000
H       -0.60940000      -1.35490000      -1.83120000
H       -2.29740000      -2.03010000       1.46650000
