15
Properties=species:S:1:pos:R:3 gdb_45675=T pbc="F F F"
O       -0.01210000      -0.04690000       0.00240000
C       -0.01780000       1.15890000       0.00900000
C       -1.19680000       2.16040000       0.03210000
N       -0.62860000       3.51870000       0.03130000
C        0.63270000       3.34380000       0.01190000
C        1.85740000       4.23010000      -0.00110000
C        2.97890000       3.20080000      -0.02320000
C        2.47760000       1.95920000      -0.02280000
N        1.07740000       2.01280000      -0.00210000
H       -1.84200000       2.00560000      -0.83960000
H       -1.81600000       1.99570000       0.92070000
H        1.86360000       4.89010000      -0.87630000
H        1.88930000       4.88030000       0.88080000
H        4.02850000       3.45290000      -0.03720000
H        2.97630000       1.00200000      -0.03550000
