20
Properties=species:S:1:pos:R:3 gdb_105187=T pbc="F F F"
C       -0.28360000       1.48820000       0.24560000
C        0.03700000       0.01550000       0.15470000
N        1.39490000      -0.38360000      -0.19680000
C        0.88590000      -0.73920000       1.14720000
C        1.61100000      -0.06830000       2.29270000
O        2.86940000      -0.68550000       2.52740000
C        0.50320000      -2.19630000       1.30140000
C        0.36820000      -2.76050000       2.69700000
O        0.32050000      -2.87740000       0.31180000
H        0.57280000       2.07130000       0.58880000
H       -0.56330000       1.86350000      -0.74470000
H       -1.12710000       1.66660000       0.92060000
H       -0.75720000      -0.59290000      -0.27590000
H        1.34750000      -1.23390000      -0.76020000
H        1.72970000       1.00090000       2.08260000
H        1.04850000      -0.16100000       3.22660000
H        3.35610000      -0.62980000       1.69630000
H        1.33080000      -2.67950000       3.21240000
H       -0.36210000      -2.18850000       3.28040000
H        0.05720000      -3.80370000       2.63890000
