19
Properties=species:S:1:pos:R:3 gdb_108280=T pbc="F F F"
C       -0.01300000       1.57470000       0.02170000
C        0.11150000       0.05110000      -0.10980000
C        0.68990000      -0.58760000       1.12440000
C        2.17150000      -0.40530000       1.52830000
N        2.24260000      -1.83170000       1.96370000
C        0.86890000      -2.09630000       1.44680000
C       -0.15990000      -1.83660000       2.52910000
N       -0.78170000      -2.53760000       3.35940000
O       -0.20730000      -0.46980000       2.28680000
H        0.96530000       2.04310000       0.17320000
H       -0.45430000       2.00840000      -0.87990000
H       -0.64700000       1.83640000       0.87320000
H       -0.87290000      -0.39070000      -0.30340000
H        0.74910000      -0.20570000      -0.96470000
H        2.81010000      -0.16390000       0.66960000
H        2.36080000       0.31340000       2.33080000
H        2.94920000      -2.36350000       1.47100000
H        0.72780000      -2.93360000       0.76410000
H       -1.39400000      -1.96700000       3.94560000
