15
Properties=species:S:1:pos:R:3 gdb_14539=T pbc="F F F"
N       -0.09090000       1.44900000      -0.03330000
C       -0.06980000       0.00170000      -0.03480000
C        1.03560000      -0.57810000       0.68650000
N        1.93260000      -1.03980000       1.25270000
C       -1.35370000      -0.82010000       0.06400000
C       -2.45750000      -0.12240000      -0.73370000
N       -1.54170000      -0.00400000      -1.92390000
C       -0.54400000      -0.83060000      -1.22260000
H        0.86260000       1.79690000      -0.07020000
H       -0.53950000       1.73780000      -0.90320000
H       -1.49290000      -1.56650000       0.83470000
H       -3.30180000      -0.79160000      -0.91940000
H       -2.82420000       0.83630000      -0.35510000
H       -1.91950000      -0.47200000      -2.73910000
H        0.05310000      -1.58910000      -1.71470000
