18
Properties=species:S:1:pos:R:3 gdb_69144=T pbc="F F F"
C       -0.10410000       1.50170000       0.00740000
C        0.04200000       0.00380000       0.00020000
N       -0.48580000      -0.80790000       1.11030000
C        0.98730000      -0.74310000       0.87460000
C        1.54740000      -1.90660000       0.07750000
O        2.50400000      -2.56820000       0.39980000
C        0.85570000      -1.95180000      -1.26100000
C       -0.65940000      -2.09370000      -1.34400000
C       -0.04430000      -0.72990000      -1.34690000
H        0.60610000       1.96870000      -0.68320000
H       -1.11330000       1.79850000      -0.30030000
H        0.08030000       1.91030000       1.00630000
H       -0.70020000      -0.20240000       1.90100000
H        1.62400000      -0.28380000       1.62300000
H        1.44810000      -2.31640000      -2.09130000
H       -1.02900000      -2.47810000      -2.28840000
H       -1.20660000      -2.40480000      -0.46480000
H       -0.07510000      -0.12010000      -2.24230000
