16
Properties=species:S:1:pos:R:3 gdb_52919=T pbc="F F F"
C        0.00640000       1.45550000       0.00060000
C        0.01200000       0.00120000      -0.00150000
C        0.01670000      -1.20590000      -0.00430000
C        0.00380000      -2.61580000      -0.01410000
C        0.81180000      -3.62740000       0.84710000
C       -0.34370000      -4.64340000       0.69140000
C       -1.11670000      -3.69180000      -0.14500000
N       -0.17970000      -4.66500000      -0.80630000
C        0.93720000      -3.63810000      -0.64740000
H        0.58040000       1.86150000      -0.84020000
H       -1.01570000       1.84200000      -0.08180000
H        0.43710000       1.85870000       0.92430000
H        1.52430000      -3.40520000       1.62800000
H       -0.64480000      -5.51710000       1.25610000
H       -2.16810000      -3.62810000      -0.39760000
H        1.77390000      -3.51320000      -1.32290000
