20
Properties=species:S:1:pos:R:3 gdb_87903=T pbc="F F F"
C        0.07620000       1.60120000       0.14310000
C       -0.00810000       0.09120000       0.10560000
C        1.20130000      -0.74120000      -0.29660000
C        0.70920000      -0.75440000       1.11640000
O        1.52220000      -0.05760000       2.07660000
C        1.45090000      -0.80830000       3.20070000
N        0.75780000      -1.86770000       3.21490000
C        0.15470000      -1.98180000       1.86820000
C       -1.36870000      -2.06210000       1.96700000
H        1.04800000       1.93160000       0.51790000
H       -0.06810000       2.02320000      -0.85700000
H       -0.69240000       2.02290000       0.79970000
H       -0.97030000      -0.29960000      -0.21600000
H        1.05400000      -1.63320000      -0.89830000
H        2.12750000      -0.20910000      -0.48930000
H        2.02440000      -0.41710000       4.03400000
H        0.52610000      -2.90670000       1.40820000
H       -1.78010000      -1.14430000       2.39780000
H       -1.82220000      -2.21760000       0.98290000
H       -1.65070000      -2.89960000       2.61010000
