23
Properties=species:S:1:pos:R:3 gdb_115009=T pbc="F F F"
C       -0.23610000       1.66250000       0.23300000
C       -0.18640000       0.13980000       0.40040000
C       -1.42050000      -0.57230000      -0.15860000
C       -1.61430000      -0.41730000      -1.69590000
C       -2.21370000      -1.73780000      -2.11710000
C       -2.13230000      -2.64830000      -1.14760000
C       -1.49530000      -2.09890000       0.07810000
C       -0.42180000      -2.90430000       0.79060000
C       -1.76210000      -2.68860000       1.44160000
H        0.65130000       2.13650000       0.66380000
H       -0.28550000       1.94940000      -0.82240000
H       -1.11540000       2.08570000       0.73190000
H        0.71260000      -0.25580000      -0.08990000
H       -0.08160000      -0.09430000       1.46820000
H       -2.30650000      -0.13750000       0.32520000
H       -2.24660000       0.44090000      -1.94940000
H       -0.65320000      -0.24960000      -2.20620000
H       -2.61620000      -1.91140000      -3.10870000
H       -2.45670000      -3.68160000      -1.21690000
H       -0.19000000      -3.88980000       0.40020000
H        0.43410000      -2.37760000       1.19710000
H       -1.81050000      -2.00220000       2.28220000
H       -2.44630000      -3.52780000       1.51580000
