13
Properties=species:S:1:pos:R:3 gdb_19637=T pbc="F F F"
N        0.09290000      -1.11720000      -0.07160000
C        0.04100000       0.04000000      -0.03300000
C       -0.03060000       1.45060000       0.02280000
C       -0.91460000       2.44190000       0.84170000
C       -0.82990000       3.45560000      -0.28740000
C        0.20960000       3.46440000       0.82410000
C        1.09910000       2.49410000      -0.00840000
C        0.06780000       2.48540000      -1.11110000
H       -1.69280000       2.26800000       1.57080000
H       -1.53800000       4.21560000      -0.58460000
H        0.45280000       4.23240000       1.54400000
H        2.16350000       2.30870000      -0.04590000
H        0.17790000       2.29180000      -2.16900000
