15
Properties=species:S:1:pos:R:3 gdb_27778=T pbc="F F F"
C        0.01890000       1.50570000       0.02420000
C       -0.01740000       0.00660000      -0.00430000
C       -1.18650000      -0.68860000      -0.12720000
C       -1.19230000      -2.11890000      -0.15680000
O       -2.09350000      -2.89930000      -0.26270000
O        0.12760000      -2.68810000      -0.03890000
C        1.19930000      -1.90090000       0.08280000
N        2.34280000      -2.60620000       0.21660000
N        1.20700000      -0.60030000       0.10070000
H        0.64850000       1.87750000      -0.79110000
H       -0.97850000       1.93960000      -0.06560000
H        0.47820000       1.84810000       0.95750000
H       -2.14500000      -0.19560000      -0.21070000
H        2.33360000      -3.59490000       0.03740000
H        3.20960000      -2.09930000       0.17560000
