23
Properties=species:S:1:pos:R:3 gdb_118848=T pbc="F F F"
C        0.10410000       1.57580000       0.18630000
C        0.00390000       0.05010000       0.25880000
C       -1.35200000      -0.48470000      -0.22430000
C       -1.46210000      -1.99670000      -0.14460000
O       -0.52470000      -2.67540000      -0.95000000
C       -1.86990000      -2.67800000       1.14180000
C       -2.78030000      -2.71570000      -0.07220000
C       -4.11780000      -2.02590000      -0.06910000
O       -5.05180000      -2.89780000       0.55790000
H        1.08260000       1.92820000       0.52710000
H       -0.04000000       1.93310000      -0.83930000
H       -0.65820000       2.05330000       0.81200000
H        0.80340000      -0.39090000      -0.35010000
H        0.17670000      -0.28330000       1.29060000
H       -2.14880000      -0.02450000       0.37100000
H       -1.51300000      -0.17360000      -1.26510000
H        0.33330000      -2.61560000      -0.51660000
H       -1.35840000      -3.59410000       1.41490000
H       -2.17410000      -2.05690000       1.97880000
H       -2.78210000      -3.65870000      -0.61050000
H       -4.05810000      -1.06700000       0.46810000
H       -4.42400000      -1.80120000      -1.10370000
H       -5.92320000      -2.49600000       0.49130000
