18
Properties=species:S:1:pos:R:3 gdb_52823=T pbc="F F F"
C       -0.00280000       1.49960000      -0.01510000
C        0.03420000       0.04460000      -0.00300000
C        0.05790000      -1.15980000       0.00360000
C        0.07820000      -2.61000000      -0.00370000
C        1.03740000      -3.18560000      -1.05300000
C        0.16350000      -3.28120000       1.41780000
N       -1.16720000      -3.83450000       1.16950000
C       -1.34870000      -3.27730000      -0.06750000
O       -2.23720000      -3.31910000      -0.87150000
H        0.69580000       1.90940000      -0.75280000
H       -1.00380000       1.86770000      -0.26570000
H        0.26760000       1.91310000       0.96290000
H        2.05620000      -2.82510000      -0.88530000
H        1.03960000      -4.27950000      -1.01570000
H        0.72180000      -2.87650000      -2.05250000
H        0.95340000      -4.03300000       1.51650000
H        0.21020000      -2.57400000       2.24960000
H       -1.76310000      -4.43340000       1.72120000
