15
Properties=species:S:1:pos:R:3 gdb_18215=T pbc="F F F"
O       -0.11780000      -0.05230000      -0.04210000
C       -0.02890000       1.16120000       0.01860000
C        1.20540000       1.90100000       0.05260000
C        1.31770000       3.25970000       0.04730000
N        2.60890000       3.66920000      -0.10700000
C        3.50130000       2.53550000      -0.07320000
C        3.50060000       1.67010000       1.16210000
C        2.58010000       1.31680000       0.01020000
H       -0.94300000       1.80000000       0.04850000
H        0.52350000       3.99130000       0.12820000
H        2.91630000       4.60430000       0.10140000
H        4.37790000       2.60150000      -0.70740000
H        4.37210000       1.04020000       1.29910000
H        3.06390000       2.05950000       2.07550000
H        2.75460000       0.40570000      -0.54790000
