16
Properties=species:S:1:pos:R:3 gdb_129781=T pbc="F F F"
N        0.13750000       1.41180000       0.16430000
C       -0.04120000       0.03040000       0.05750000
C       -1.15330000      -0.78150000      -0.00060000
C       -2.64260000      -0.83890000      -0.07060000
O       -2.93980000      -2.24770000      -0.12430000
C       -1.76100000      -3.06900000      -0.09560000
C       -0.63760000      -2.08590000      -0.01310000
N        0.67940000      -2.14730000       0.02830000
N        1.02630000      -0.82340000       0.07600000
H        0.82900000       1.78010000      -0.47850000
H       -0.73060000       1.91450000       0.03950000
H       -3.14540000      -0.40600000       0.80700000
H       -3.06560000      -0.35480000      -0.96390000
H       -1.80760000      -3.74290000       0.77070000
H       -1.72540000      -3.68850000      -1.00220000
H        1.99450000      -0.57640000       0.19270000
