11
Properties=species:S:1:pos:R:3 gdb_131924=T pbc="F F F"
O        0.01270000       0.21050000      -0.66630000
N       -0.03050000       1.22280000       0.00700000
O        0.86310000       1.71100000       0.67270000
C       -1.34070000       1.95570000       0.01780000
N       -1.26160000       3.26580000      -0.09400000
C       -2.46010000       3.85800000      -0.09830000
N       -3.63180000       3.23730000       0.03650000
C       -3.54590000       1.91310000       0.16100000
N       -2.41420000       1.20180000       0.13770000
H       -2.47440000       4.93780000      -0.21780000
H       -4.47200000       1.35930000       0.28820000
