21
Properties=species:S:1:pos:R:3 gdb_105097=T pbc="F F F"
O        0.07040000       1.47950000       0.26790000
C        0.01490000       0.06310000       0.16300000
C       -1.40980000      -0.48790000       0.09460000
C       -2.50980000       0.25500000       0.81940000
C       -2.41560000       0.32770000      -0.68470000
C       -1.56130000      -1.98750000       0.02430000
C       -0.43430000      -2.93890000      -0.34370000
C       -1.01130000      -2.93920000       1.05150000
O       -0.27140000      -2.39550000       2.10920000
H       -0.10510000       1.71060000       1.18440000
H        0.53720000      -0.18180000      -0.76920000
H        0.55570000      -0.41480000       0.98800000
H       -3.30420000      -0.33440000       1.26460000
H       -2.25740000       1.15000000       1.37730000
H       -2.06500000       1.26210000      -1.10760000
H       -3.15680000      -0.19650000      -1.27890000
H       -2.53740000      -2.28390000      -0.35180000
H       -0.64420000      -3.77080000      -1.00750000
H        0.56100000      -2.52200000      -0.44850000
H       -1.64530000      -3.77900000       1.33660000
H        0.43960000      -3.01030000       2.31900000
