17
Properties=species:S:1:pos:R:3 gdb_85193=T pbc="F F F"
C        0.06650000       1.66680000       0.07330000
C        0.05280000       0.14640000       0.06980000
C        1.01750000      -0.58270000      -0.91720000
C        1.65570000      -1.22040000       0.33330000
O        2.50990000      -2.02820000       0.58040000
N        0.81020000      -0.50760000       1.15830000
C        0.60170000      -0.63680000       2.57620000
C        0.80570000       0.61950000       3.31510000
N        0.94360000       1.61280000       3.88820000
H        1.09210000       2.04640000       0.11170000
H       -0.41200000       2.04580000      -0.83530000
H       -0.47610000       2.07050000       0.93310000
H       -0.97590000      -0.23160000       0.01140000
H        0.55280000      -1.30030000      -1.59510000
H        1.68600000       0.07500000      -1.47630000
H       -0.40630000      -1.00950000       2.80430000
H        1.31920000      -1.38510000       2.93170000
