24
Properties=species:S:1:pos:R:3 gdb_17972=T pbc="F F F"
C        0.00170000       1.50910000       0.17340000
C        1.43790000       2.06250000       0.06920000
C        2.34530000       1.48250000      -1.02470000
C        1.93870000       1.71550000      -2.48650000
C        0.61770000       1.08220000      -2.96990000
C        0.36680000      -0.37720000      -2.52410000
C       -0.57520000      -0.56040000      -1.31960000
C       -0.13900000      -0.02670000       0.05760000
H       -0.39550000       1.83070000       1.14330000
H       -0.64490000       1.98520000      -0.57170000
H        1.38680000       3.15410000      -0.04150000
H        1.93900000       1.88470000       1.03010000
H        3.34490000       1.91420000      -0.88740000
H        2.47490000       0.40670000      -0.85320000
H        1.90520000       2.79480000      -2.68710000
H        2.75080000       1.32220000      -3.11250000
H       -0.23420000       1.70070000      -2.66720000
H        0.62540000       1.12330000      -4.06540000
H       -0.08440000      -0.92410000      -3.36060000
H        1.32300000      -0.88130000      -2.33150000
H       -1.54220000      -0.10120000      -1.57140000
H       -0.77660000      -1.63440000      -1.21320000
H        0.79370000      -0.51440000       0.36970000
H       -0.89520000      -0.36220000       0.77730000
