15
Properties=species:S:1:pos:R:3 gdb_29740=T pbc="F F F"
C       -0.00170000       1.45400000       0.06870000
N        0.02290000       0.00490000       0.02640000
C        0.06990000      -0.78450000      -1.07030000
O        0.07480000      -0.23100000      -2.29300000
N        0.10560000      -2.06900000      -0.80310000
C        0.08540000      -2.13190000       0.56840000
C        0.03660000      -0.87330000       1.12420000
C       -0.00460000      -0.42460000       2.45340000
C       -0.04150000      -0.02520000       3.59110000
H        0.97300000       1.85670000       0.36190000
H       -0.25890000       1.82690000      -0.92270000
H       -0.74980000       1.78960000       0.79020000
H        0.09110000      -0.96530000      -2.92010000
H        0.10380000      -3.07400000       1.09340000
H       -0.07210000       0.31290000       4.59690000
