20
Properties=species:S:1:pos:R:3 gdb_64139=T pbc="F F F"
C       -0.22330000       1.54680000      -0.01640000
C        0.06870000       0.04740000      -0.00790000
O       -1.15700000      -0.69470000       0.04140000
C        0.91690000      -0.43400000      -1.20680000
C        1.48480000      -1.77500000      -0.73320000
C        1.92590000      -1.44850000       0.71730000
C        0.86730000      -0.42360000       1.23630000
C        2.07450000      -2.62500000       1.56710000
N        2.19180000      -3.55970000       2.23750000
H        0.70030000       2.13400000       0.00000000
H       -0.78000000       1.82860000      -0.91840000
H       -0.82690000       1.82170000       0.85350000
H       -1.68350000      -0.44750000      -0.72700000
H        0.32100000      -0.51270000      -2.12160000
H        1.72960000       0.27700000      -1.40260000
H        0.69240000      -2.52750000      -0.71520000
H        2.30830000      -2.15430000      -1.34180000
H        2.90480000      -0.95660000       0.67610000
H        1.35650000       0.41040000       1.74360000
H        0.17380000      -0.88500000       1.94040000
