17
Properties=species:S:1:pos:R:3 gdb_69246=T pbc="F F F"
C       -0.02160000       1.52150000       0.03350000
C        0.03230000       0.01100000      -0.01990000
N       -0.80060000      -0.76820000       0.92680000
C        0.66900000      -0.74740000       1.11380000
C        1.39470000      -2.03240000       0.85750000
O        2.07460000      -2.59410000       1.69320000
N        1.26460000      -2.52230000      -0.42830000
C        0.71540000      -1.81820000      -1.49730000
C        0.15770000      -0.61170000      -1.36120000
H        0.85810000       1.96350000      -0.44550000
H       -0.90980000       1.89450000      -0.48930000
H       -0.06090000       1.88060000       1.06700000
H       -1.21010000      -0.13700000       1.61310000
H        1.07310000      -0.20130000       1.96070000
H        1.76140000      -3.38290000      -0.60240000
H        0.78790000      -2.32470000      -2.45230000
H       -0.23360000      -0.09300000      -2.22750000
