20
Properties=species:S:1:pos:R:3 gdb_37221=T pbc="F F F"
C       -0.06430000       1.50950000       0.08480000
C        1.31640000       2.21910000       0.06780000
C        2.25250000       1.57350000       1.07280000
C        2.22600000       0.25050000       1.09240000
C        2.60960000      -0.95840000       1.88790000
N        1.29250000      -1.48180000       2.40070000
C        1.72280000      -1.80860000       1.02780000
C        1.39480000      -0.58870000       0.13380000
C       -0.01600000      -0.03650000      -0.12740000
H       -0.51590000       1.71420000       1.06100000
H       -0.71820000       1.96670000      -0.66550000
H        1.74510000       2.18040000      -0.94460000
H        1.17800000       3.28060000       0.29660000
H        2.83980000       2.18080000       1.75480000
H        3.52810000      -1.19810000       2.40830000
H        1.51630000      -2.29210000       2.98080000
H        1.85100000      -2.83720000       0.71360000
H        1.94720000      -0.69390000      -0.80910000
H       -0.72490000      -0.51130000       0.55660000
H       -0.33460000      -0.28860000      -1.14430000
