19
Properties=species:S:1:pos:R:3 gdb_72772=T pbc="F F F"
O       -0.25580000       1.41950000      -0.16350000
C       -0.02320000       0.01860000      -0.06920000
C       -1.22740000      -0.59980000       0.72030000
C       -0.35720000      -0.54340000       2.03460000
C        0.82710000      -0.42610000       1.09790000
C        1.95880000      -1.02780000       0.72330000
C        2.04530000      -1.06060000      -0.77580000
C        1.02390000      -1.99290000      -1.40260000
C        0.69590000      -0.52930000      -1.29100000
H        0.60500000       1.84520000      -0.24890000
H       -2.13550000       0.00530000       0.70600000
H       -1.44750000      -1.62490000       0.41760000
H       -0.56090000       0.36860000       2.60170000
H       -0.38830000      -1.40270000       2.70750000
H        2.64070000      -1.58850000       1.35410000
H        2.97920000      -0.88520000      -1.29950000
H        1.23080000      -2.36540000      -2.40120000
H        0.52060000      -2.70340000      -0.75460000
H        0.64250000       0.05190000      -2.20440000
