17
Properties=species:S:1:pos:R:3 gdb_56526=T pbc="F F F"
C        0.00210000       1.53890000       0.07920000
C        0.00320000       0.01010000       0.00490000
O        0.66700000      -0.46350000       1.16520000
C       -1.39730000      -0.48090000      -0.01810000
N       -2.48980000      -0.85660000      -0.02770000
C        0.74060000      -0.51520000      -1.27460000
N        2.08170000       0.07400000      -1.31170000
C        0.74120000      -1.98580000      -1.26590000
C        0.79310000      -3.18670000      -1.20870000
H        1.03090000       1.89710000       0.07150000
H       -0.52820000       1.96270000      -0.77690000
H       -0.49550000       1.85560000       0.99780000
H        0.65770000      -1.43010000       1.13410000
H        0.18590000      -0.15890000      -2.15040000
H        2.59060000      -0.23800000      -0.48840000
H        2.58320000      -0.28270000      -2.11900000
H        0.82070000      -4.24890000      -1.18860000
