23
Properties=species:S:1:pos:R:3 gdb_81776=T pbc="F F F"
C       -0.41210000       1.53410000       0.37990000
C       -0.11390000       0.04750000       0.20990000
C        0.26380000      -0.47120000      -1.18500000
C        1.60650000       0.08720000      -1.61560000
C        1.58050000      -1.03210000      -0.63510000
O        2.27680000      -2.19140000      -0.93360000
C        1.23120000      -0.56710000       0.79530000
C        2.22730000       0.37120000       1.47650000
C        0.93150000      -1.76540000       1.70100000
H        0.37470000       2.16890000      -0.03800000
H       -1.34690000       1.79480000      -0.12840000
H       -0.52610000       1.79920000       1.43680000
H       -0.96060000      -0.52230000       0.60750000
H       -0.42530000      -0.88960000      -1.90950000
H        1.91580000      -0.22320000      -2.60860000
H        1.92280000       1.09190000      -1.34750000
H        1.82350000      -2.93160000      -0.51510000
H        2.47610000       1.23550000       0.85560000
H        1.83260000       0.74770000       2.42730000
H        3.16200000      -0.15830000       1.69300000
H        1.84580000      -2.32000000       1.94220000
H        0.48490000      -1.43680000       2.64570000
H        0.22490000      -2.46040000       1.23050000
