18
Properties=species:S:1:pos:R:3 gdb_15549=T pbc="F F F"
C       -0.71680000       1.29110000      -0.05420000
C        0.08120000      -0.00850000      -0.07660000
C        1.30150000      -0.01190000      -1.03150000
C        2.24870000      -0.98840000      -0.37950000
C        1.90590000      -1.25710000       0.87750000
C        0.66170000      -0.48730000       1.30410000
C        1.00700000       0.58770000       2.23500000
C        1.30470000       1.46270000       3.00500000
H       -0.10020000       2.12690000       0.28890000
H       -1.08970000       1.52920000      -1.05600000
H       -1.58060000       1.21950000       0.61490000
H       -0.57930000      -0.82050000      -0.40340000
H        1.02060000      -0.29560000      -2.05210000
H        1.76160000       0.98470000      -1.10210000
H        3.12250000      -1.38680000      -0.88370000
H        2.45020000      -1.88870000       1.56940000
H       -0.06530000      -1.13990000       1.80490000
H        1.56710000       2.23360000       3.68630000
