23
Properties=species:S:1:pos:R:3 gdb_99773=T pbc="F F F"
C       -0.18760000       1.52140000       0.12530000
C        0.03660000       0.01260000       0.02990000
O        0.66160000      -0.33570000      -1.20740000
C        0.79160000      -0.59730000       1.23710000
C        0.65320000      -2.13160000       1.19320000
O        1.20680000      -2.79040000       2.32010000
C        2.25250000      -0.18050000       1.29090000
C        2.69700000       1.09370000       1.96900000
C        3.02940000      -0.23560000       2.59190000
H        0.76400000       2.06360000       0.14390000
H       -0.76190000       1.86680000      -0.73900000
H       -0.73890000       1.78370000       1.03400000
H       -0.94480000      -0.47660000      -0.02100000
H        1.42460000       0.24100000      -1.31920000
H        0.29730000      -0.24750000       2.15430000
H       -0.40940000      -2.39870000       1.18810000
H        1.08540000      -2.50350000       0.25250000
H        2.15150000      -2.60970000       2.32090000
H        2.82030000      -0.46360000       0.40690000
H        3.50050000       1.66650000       1.51890000
H        1.94070000       1.70000000       2.45570000
H        2.48800000      -0.52110000       3.48690000
H        4.06140000      -0.56960000       2.56690000
