23
Properties=species:S:1:pos:R:3 gdb_116905=T pbc="F F F"
C       -0.10820000       1.57850000       0.23050000
C       -0.15630000       0.05820000       0.39410000
C       -1.24010000      -0.59460000      -0.48820000
C       -1.30650000      -2.04570000      -0.35190000
C       -1.34330000      -3.24340000      -0.21400000
C       -1.37380000      -4.67840000      -0.08580000
C       -0.60800000      -5.43970000      -1.15830000
C       -1.40310000      -5.26020000       1.32060000
C       -2.64190000      -5.30990000       0.47150000
H        0.66620000       2.02100000       0.86440000
H        0.10920000       1.86030000      -0.80600000
H       -1.06470000       2.03840000       0.50370000
H        0.81580000      -0.38000000       0.14150000
H       -0.34830000      -0.20300000       1.44090000
H       -2.21720000      -0.15590000      -0.24240000
H       -1.05410000      -0.33340000      -1.53930000
H        0.45090000      -5.16250000      -1.15320000
H       -0.67890000      -6.51920000      -0.99120000
H       -1.00860000      -5.22160000      -2.15330000
H       -0.85260000      -6.18070000       1.48430000
H       -1.37930000      -4.56490000       2.15100000
H       -3.46210000      -4.64850000       0.72330000
H       -2.94190000      -6.26450000       0.05220000
