17
Properties=species:S:1:pos:R:3 gdb_32480=T pbc="F F F"
C        0.11060000       1.51450000      -0.25320000
C        0.03130000       0.01410000       0.07040000
C       -1.37060000      -0.51270000       0.02970000
C       -1.90960000      -1.46050000      -0.82470000
N       -3.21980000      -1.58190000      -0.46700000
C       -3.44120000      -0.71950000       0.57900000
C       -4.76290000      -0.61590000       1.19620000
O       -5.05730000       0.10740000       2.11600000
N       -2.33210000      -0.06690000       0.88890000
H        1.13910000       1.87720000      -0.16650000
H       -0.23780000       1.71610000      -1.27120000
H       -0.51750000       2.08410000       0.43650000
H        0.65140000      -0.55760000      -0.62900000
H        0.44360000      -0.15920000       1.07160000
H       -1.47770000      -2.03600000      -1.62730000
H       -3.89960000      -2.19460000      -0.88820000
H       -5.51660000      -1.29310000       0.72530000
