15
Properties=species:S:1:pos:R:3 gdb_13300=T pbc="F F F"
C       -0.04560000      -1.21030000       0.02090000
C       -0.00820000      -0.01130000       0.08470000
C        0.05100000       1.44290000       0.14280000
C        1.45350000       2.01440000      -0.10540000
C        1.52540000       3.56370000      -0.01510000
N        2.38110000       3.84330000       1.15070000
C        2.75780000       2.71080000       1.57410000
O        2.34830000       1.57940000       0.95240000
H       -0.08100000      -2.27050000      -0.02670000
H       -0.62440000       1.87290000      -0.60890000
H       -0.30190000       1.80020000       1.11860000
H        1.85310000       1.62160000      -1.04370000
H        1.96140000       4.01520000      -0.91190000
H        0.53690000       4.01510000       0.12880000
H        3.40880000       2.54140000       2.42460000
