17
Properties=species:S:1:pos:R:3 gdb_87301=T pbc="F F F"
C       -0.01090000       1.51160000      -0.12670000
C        0.05340000       0.01310000       0.04530000
N        1.36960000      -0.62790000      -0.01040000
C        0.60730000      -0.69150000       1.25500000
C        1.22240000       0.08660000       2.41990000
C        2.30360000      -0.65140000       3.07390000
N        3.15810000      -1.22970000       3.59300000
C       -0.00940000      -1.94060000       1.62420000
C       -0.51140000      -2.98600000       1.94220000
H        0.86850000       2.00830000       0.28820000
H       -0.05110000       1.75800000      -1.19280000
H       -0.90830000       1.92260000       0.34700000
H       -0.77200000      -0.52300000      -0.42040000
H        1.33120000      -1.52490000      -0.48670000
H        1.62460000       1.03500000       2.05730000
H        0.45080000       0.31230000       3.16410000
H       -0.94820000      -3.91220000       2.22480000
