23
Properties=species:S:1:pos:R:3 gdb_96164=T pbc="F F F"
O       -0.09710000       1.47000000       0.07120000
C        0.00650000       0.04940000      -0.02160000
C        0.79160000      -0.49700000       1.18230000
C        1.04630000      -2.01270000       1.23870000
C       -0.22650000      -2.87330000       1.34020000
C       -0.92500000      -3.05180000       0.00410000
C       -2.42180000      -2.92700000      -0.14360000
C       -1.51640000      -1.86260000      -0.71650000
C       -1.43310000      -0.47400000      -0.11350000
H        0.78750000       1.82410000       0.20810000
H        0.53700000      -0.22640000      -0.95010000
H        1.76530000       0.01420000       1.20450000
H        0.26070000      -0.18160000       2.09080000
H        1.62710000      -2.32800000       0.36130000
H        1.68350000      -2.20840000       2.10940000
H        0.03120000      -3.86150000       1.74000000
H       -0.90790000      -2.42400000       2.07320000
H       -0.44800000      -3.78830000      -0.63850000
H       -2.93850000      -3.59510000      -0.82420000
H       -2.99340000      -2.67170000       0.74400000
H       -1.40260000      -1.87520000      -1.79780000
H       -1.88650000      -0.44890000       0.88420000
H       -2.00400000       0.23170000      -0.72650000
