19
Properties=species:S:1:pos:R:3 gdb_108974=T pbc="F F F"
C        0.01350000       1.53690000       0.23480000
C       -0.02720000       0.04570000      -0.14670000
C       -1.40310000      -0.53510000      -0.10410000
C       -2.17350000      -1.02870000      -1.08350000
C       -3.45560000      -1.45260000      -0.39950000
C       -3.75460000      -0.40590000       0.73070000
O       -4.25760000      -1.44610000       1.63610000
C       -3.06710000      -2.02900000       1.00690000
C       -2.26760000      -0.68570000       1.14210000
H        1.03910000       1.91750000       0.20740000
H       -0.59080000       2.13180000      -0.45680000
H       -0.37690000       1.70020000       1.24450000
H        0.38930000      -0.08890000      -1.15140000
H        0.62780000      -0.51010000       0.53920000
H       -1.94600000      -1.11980000      -2.13730000
H       -4.28550000      -1.89740000      -0.94570000
H       -4.30000000       0.54020000       0.68320000
H       -2.78060000      -3.04420000       1.29350000
H       -1.91890000      -0.37180000       2.12520000
