17
Properties=species:S:1:pos:R:3 gdb_107380=T pbc="F F F"
O        0.12080000       1.40450000       0.32780000
C        0.08530000       0.01820000       0.02900000
C       -1.32020000      -0.50370000      -0.13060000
C       -2.08410000      -1.02290000       1.08360000
C       -1.66740000      -1.96420000      -0.00740000
O       -2.65390000      -2.30670000      -0.95800000
C       -3.01180000      -1.21370000      -1.70640000
O       -3.86230000      -1.26940000      -2.54150000
C       -2.17410000      -0.00390000      -1.27890000
H       -0.36720000       1.53940000       1.14720000
H        0.63680000      -0.09060000      -0.91170000
H        0.61740000      -0.57430000       0.79090000
H       -1.54120000      -1.08210000       2.02180000
H       -3.14220000      -0.80100000       1.18090000
H       -0.94730000      -2.75760000       0.14960000
H       -2.84100000       0.82590000      -1.03160000
H       -1.56390000       0.31930000      -2.12880000
