18
Properties=species:S:1:pos:R:3 gdb_95493=T pbc="F F F"
O       -0.01240000       1.42320000       0.02840000
C        0.05360000       0.00000000       0.03410000
C        0.76420000      -0.50310000       1.31770000
N        0.33940000      -1.83130000       1.77900000
C        0.36880000      -2.85050000       0.77840000
C       -0.51580000      -2.96230000      -0.22050000
C       -1.54600000      -1.95080000      -0.57400000
O       -2.46570000      -2.24620000      -1.31080000
C       -1.39060000      -0.50800000      -0.07620000
H        0.88710000       1.76550000       0.00570000
H        0.60620000      -0.34770000      -0.85140000
H        1.85140000      -0.50630000       1.17230000
H        0.53990000       0.21000000       2.11780000
H       -0.60820000      -1.75130000       2.13120000
H        1.16260000      -3.58790000       0.89280000
H       -0.49660000      -3.83120000      -0.87210000
H       -1.90200000      -0.40330000       0.89110000
H       -1.93550000       0.12320000      -0.78160000
