18
Properties=species:S:1:pos:R:3 gdb_47542=T pbc="F F F"
N       -0.14360000       1.34430000       0.20140000
C       -0.03130000       0.11230000      -0.04300000
O        1.16720000      -0.52330000      -0.13950000
C        1.45200000      -1.54010000      -1.11770000
C        0.42770000      -2.66810000      -1.23370000
C       -0.82510000      -2.21710000      -1.96320000
C       -2.19680000      -2.46290000      -1.36690000
C       -1.59340000      -1.09600000      -1.32110000
O       -1.14080000      -0.68190000      -0.05200000
H        0.78320000       1.76890000       0.22600000
H        1.59010000      -1.05430000      -2.09380000
H        2.42030000      -1.93440000      -0.79900000
H        0.89910000      -3.49770000      -1.77350000
H        0.18840000      -3.03580000      -0.23180000
H       -0.75220000      -2.20030000      -3.04710000
H       -3.03610000      -2.62700000      -2.03280000
H       -2.24420000      -3.00390000      -0.42830000
H       -2.01470000      -0.29040000      -1.91670000
