13
Properties=species:S:1:pos:R:3 gdb_12611=T pbc="F F F"
C       -0.04230000       1.47400000       0.00870000
N       -0.01330000       0.02260000       0.00060000
C       -1.13100000      -0.78400000       0.00330000
O       -2.28180000      -0.42820000       0.01250000
C       -0.57230000      -2.20120000      -0.00800000
O        0.84930000      -2.04180000      -0.01610000
C        1.17010000      -0.72120000      -0.01100000
O        2.28680000      -0.29620000      -0.01590000
H        0.99010000       1.82320000      -0.00040000
H       -0.57260000       1.84530000      -0.87170000
H       -0.55360000       1.83620000       0.90400000
H       -0.88050000      -2.75670000       0.88230000
H       -0.89180000      -2.74700000      -0.90030000
