21
Properties=species:S:1:pos:R:3 gdb_74873=T pbc="F F F"
C       -0.02290000       1.50990000       0.07540000
C       -0.00280000       0.00640000       0.00370000
C        0.00440000      -0.65240000      -1.16460000
C        0.01220000      -2.12490000      -1.29750000
C        1.26420000      -2.92870000      -0.98190000
C        0.10360000      -2.94660000      -0.02410000
C        0.10120000      -2.22550000       1.29810000
C        1.25660000      -1.40450000       1.80400000
C       -0.00150000      -0.71090000       1.30460000
H        0.85790000       1.89530000       0.60500000
H       -0.04660000       1.96070000      -0.92060000
H       -0.89950000       1.86700000       0.63170000
H       -0.00370000      -0.08000000      -2.09000000
H       -0.60080000      -2.51730000      -2.10460000
H        1.45100000      -3.82430000      -1.56510000
H        2.15690000      -2.37590000      -0.71290000
H       -0.47690000      -3.86300000      -0.01530000
H       -0.47610000      -2.73230000       2.06420000
H        1.44680000      -1.40180000       2.87220000
H        2.14730000      -1.32300000       1.19140000
H       -0.61770000      -0.25450000       2.07570000
