20
Properties=species:S:1:pos:R:3 gdb_77984=T pbc="F F F"
C       -0.68680000       1.25270000      -0.20940000
C       -0.35600000      -0.20160000      -0.47430000
C        0.48660000      -0.78970000      -1.56920000
C        1.75920000      -0.00340000      -1.92600000
C        1.67210000       1.28620000      -2.73440000
C        2.16490000       0.01610000      -0.41340000
C        0.94740000      -0.87260000      -0.08620000
C        0.99090000      -2.01040000       0.77070000
N        1.03720000      -2.93330000       1.46950000
H       -1.42060000       1.61820000      -0.93550000
H       -1.12380000       1.35870000       0.78880000
H        0.18390000       1.90840000      -0.25720000
H       -1.19730000      -0.85920000      -0.26260000
H        0.10020000      -1.60930000      -2.16470000
H        2.43840000      -0.68950000      -2.44200000
H        1.01460000       2.02750000      -2.27500000
H        2.66370000       1.73900000      -2.84310000
H        1.29030000       1.08390000      -3.74120000
H        3.11590000      -0.48120000      -0.22030000
H        2.17480000       0.98960000       0.08450000
