19
Properties=species:S:1:pos:R:3 gdb_68139=T pbc="F F F"
C       -0.08340000       1.51140000       0.00820000
C        0.00310000       0.00810000      -0.01290000
C        0.75720000      -0.78330000      -1.12060000
C       -0.23880000      -1.87800000      -0.64660000
C        0.27850000      -2.20230000       0.78390000
C        0.45860000      -0.73310000       1.27250000
N       -1.21690000      -0.76150000      -0.45610000
C       -0.62820000      -2.99600000      -1.48450000
N       -0.92170000      -3.90230000      -2.13900000
H        0.89860000       1.95220000       0.21050000
H       -0.44620000       1.89340000      -0.94950000
H       -0.76800000       1.85270000       0.79300000
H        0.51960000      -0.42380000      -2.12070000
H        1.82330000      -0.97860000      -0.99660000
H       -0.46360000      -2.76470000       1.35590000
H        1.20660000      -2.77890000       0.77190000
H        1.49010000      -0.49900000       1.55080000
H       -0.18300000      -0.48720000       2.12410000
H       -1.87980000      -0.94660000       0.29930000
