19
Properties=species:S:1:pos:R:3 gdb_90837=T pbc="F F F"
C       -0.19190000       1.49140000      -0.11160000
C        0.07580000       0.00540000       0.06230000
O        1.00280000      -0.47130000      -0.96200000
C        2.11070000      -1.05680000      -0.23660000
C        1.51170000      -1.82370000       0.94790000
C        2.39300000      -1.21580000       2.07920000
C        1.15650000      -0.56840000       2.78480000
C        0.88640000      -0.41930000       1.27190000
C        2.40280000      -0.13760000       0.95440000
H        0.72790000       2.07070000       0.01030000
H       -0.59120000       1.69030000      -1.11000000
H       -0.92420000       1.83770000       0.62590000
H       -0.85890000      -0.56270000      -0.03150000
H        2.83440000      -1.43530000      -0.95790000
H        0.95880000      -2.76360000       0.96480000
H        3.26090000      -1.67420000       2.55280000
H        0.49620000      -1.24130000       3.34070000
H        1.33480000       0.35200000       3.34910000
H        2.87320000       0.84560000       0.98160000
