18
Properties=species:S:1:pos:R:3 gdb_67848=T pbc="F F F"
C        0.01710000       1.53910000      -0.02490000
C       -0.02960000       0.03200000       0.05470000
C       -1.30290000      -0.69720000      -0.24360000
C       -1.45060000      -1.77840000       0.52300000
C       -0.30080000      -1.94900000       1.49250000
C        0.63310000      -0.79500000       1.13540000
C        1.24920000      -0.76370000      -0.26070000
C        1.24880000      -1.92070000      -1.10870000
N        1.26800000      -2.85820000      -1.78720000
H        0.99000000       1.92650000       0.29240000
H       -0.16270000       1.88630000      -1.04830000
H       -0.74890000       1.98400000       0.61930000
H       -1.98460000      -0.36960000      -1.01990000
H       -2.26480000      -2.49010000       0.45570000
H       -0.63350000      -1.87570000       2.53570000
H        0.18160000      -2.92860000       1.38610000
H        1.22130000      -0.32710000       1.91640000
H        2.15350000      -0.16810000      -0.34630000
