15
Properties=species:S:1:pos:R:3 gdb_127203=T pbc="F F F"
C       -0.57140000       1.32310000       0.01640000
N       -0.08020000      -0.05630000       0.03360000
C        0.15050000      -0.65530000      -1.19070000
N       -0.05150000      -0.04510000      -2.27960000
O        0.61550000      -1.96000000      -1.19720000
N        0.85670000      -2.68340000      -0.03560000
C        0.62860000      -2.08710000       1.06860000
C        0.13690000      -0.71360000       1.23350000
N       -0.08180000      -0.14420000       2.35700000
H        0.14710000       1.96220000      -0.50120000
H       -1.51870000       1.36860000      -0.52490000
H       -0.69890000       1.63950000       1.04850000
H        0.17320000      -0.64430000      -3.07070000
H        0.82570000      -2.67560000       1.95960000
H        0.13230000      -0.77580000       3.12580000
