20
Properties=species:S:1:pos:R:3 gdb_100886=T pbc="F F F"
C       -0.00970000       1.57900000       0.05200000
C       -0.03770000       0.05060000      -0.02420000
C        0.76370000      -0.49860000      -1.20970000
O        2.12120000      -0.08670000      -1.18650000
C        0.65950000      -2.04370000      -1.34270000
C        1.27990000      -2.54990000      -2.66940000
O        1.19590000      -3.94940000      -2.81140000
C        1.33420000      -2.69260000      -0.21610000
N        1.91830000      -3.18730000       0.65140000
H        1.01820000       1.94620000       0.10760000
H       -0.47410000       2.02630000      -0.83370000
H       -0.55220000       1.93670000       0.93150000
H        0.36260000      -0.38160000       0.90310000
H       -1.07260000      -0.30450000      -0.10550000
H        0.36090000      -0.07680000      -2.13920000
H        2.50930000      -0.38350000      -0.35360000
H       -0.39530000      -2.34180000      -1.32380000
H        0.70570000      -2.11940000      -3.49560000
H        2.30910000      -2.17740000      -2.74170000
H        1.80870000      -4.35360000      -2.18710000
