17
Properties=species:S:1:pos:R:3 gdb_11814=T pbc="F F F"
C        0.25600000       1.63520000      -0.06460000
C        0.04560000       0.12720000       0.00260000
C        0.50990000      -0.76430000      -1.19940000
C        1.30000000      -1.64930000      -0.21780000
C        1.30590000      -3.13770000      -0.12060000
N        2.53950000      -2.40320000      -0.40960000
C        1.01950000      -0.67060000       0.90400000
O        1.41030000      -0.53610000       2.02720000
H        1.28340000       1.87710000      -0.35650000
H       -0.42020000       2.09780000      -0.79040000
H        0.07220000       2.08910000       0.91360000
H       -0.98760000      -0.10150000       0.28980000
H       -0.28170000      -1.25720000      -1.76720000
H        1.15880000      -0.21780000      -1.89120000
H        1.27240000      -3.60450000       0.85980000
H        0.81180000      -3.68840000      -0.91760000
H        2.75170000      -2.44850000      -1.40440000
