16
Properties=species:S:1:pos:R:3 gdb_37885=T pbc="F F F"
N       -0.03850000       1.48890000       0.03000000
C        1.43490000       1.49790000      -0.03150000
C        2.07070000       0.79080000       1.24000000
O        1.01990000       0.39960000       2.11870000
C        0.41490000      -0.63800000       1.34880000
O        1.48700000      -1.50860000       1.04290000
C        2.30220000      -0.53570000       0.40030000
C        1.43270000       0.09700000      -0.70190000
C        0.01820000       0.00340000      -0.03040000
H       -0.41090000       1.83640000       0.91350000
H        1.91670000       2.39770000      -0.41640000
H        2.87270000       1.27010000       1.79810000
H       -0.35440000      -1.14080000       1.93150000
H        3.30220000      -0.91480000       0.20700000
H        1.54650000      -0.11300000      -1.76220000
H       -0.81310000      -0.49580000      -0.53050000
