19
Properties=species:S:1:pos:R:3 gdb_42884=T pbc="F F F"
O        0.03720000       0.01600000       0.08900000
C       -0.01630000       1.20910000       0.03650000
C       -1.15460000       2.24660000       0.10160000
C       -0.07690000       3.26190000       0.59790000
C        1.05630000       2.34940000       0.03450000
O        1.57540000       2.67230000      -1.23810000
C        0.68600000       3.24090000      -2.19250000
C       -0.61050000       2.45750000      -2.43350000
C       -1.67290000       2.55870000      -1.31920000
H       -1.98300000       2.02320000       0.77780000
H       -0.13850000       4.27830000       0.20760000
H       -0.02590000       3.30610000       1.68840000
H        1.92330000       2.17390000       0.67610000
H        0.45050000       4.28330000      -1.92670000
H        1.27190000       3.26960000      -3.11560000
H       -1.05240000       2.82760000      -3.36610000
H       -0.35030000       1.40670000      -2.61040000
H       -2.48610000       1.86420000      -1.55470000
H       -2.10820000       3.56610000      -1.31520000
