19
Properties=species:S:1:pos:R:3 gdb_120593=T pbc="F F F"
C       -0.10440000       1.36610000       0.21790000
O       -0.11010000      -0.03880000       0.28780000
C       -1.28490000      -0.60430000      -0.26130000
C       -1.16490000      -2.10360000      -0.17360000
C       -1.49210000      -2.82120000       1.11170000
C       -2.41000000      -2.96050000      -0.09340000
O       -3.62300000      -2.25110000      -0.07890000
C       -2.44870000      -4.21430000      -0.80280000
C       -2.51150000      -5.26970000      -1.37670000
H        0.83320000       1.71240000       0.65980000
H       -0.16110000       1.72610000      -0.82210000
H       -0.94510000       1.80840000       0.77650000
H       -2.17740000      -0.25830000       0.27950000
H       -1.40170000      -0.29300000      -1.31320000
H       -0.35560000      -2.52140000      -0.76320000
H       -0.89130000      -3.67300000       1.40700000
H       -1.88360000      -2.21860000       1.92440000
H       -4.27000000      -2.79140000       0.38850000
H       -2.56090000      -6.19510000      -1.89510000
