19
Properties=species:S:1:pos:R:3 gdb_11863=T pbc="F F F"
O       -0.01550000       1.35300000      -0.26370000
C        0.01880000      -0.03990000       0.01380000
C       -1.40870000      -0.53800000       0.07980000
C       -2.23140000      -0.55070000      -1.24490000
C       -2.70550000      -1.95960000      -0.87000000
C       -4.10600000      -2.43060000      -0.81510000
N       -3.13150000      -3.04200000      -1.74680000
C       -1.62660000      -2.07580000       0.21150000
H        0.88980000       1.66990000      -0.33130000
H        0.56210000      -0.59020000      -0.77300000
H        0.52940000      -0.24660000       0.96910000
H       -1.94290000       0.00900000       0.86190000
H       -2.99100000       0.22370000      -1.37490000
H       -1.57730000      -0.55150000      -2.12470000
H       -4.43490000      -3.08370000      -0.01040000
H       -4.88150000      -1.78300000      -1.21830000
H       -3.28400000      -2.68810000      -2.68890000
H       -0.76330000      -2.65160000      -0.13980000
H       -1.93090000      -2.45890000       1.18850000
