23
Properties=species:S:1:pos:R:3 gdb_88988=T pbc="F F F"
C        2.15410000      -0.81620000      -0.15690000
N        0.73430000      -0.59930000       0.07550000
C        0.01970000      -1.57650000       0.88820000
C        0.25500000      -0.19250000       1.39660000
C        1.16420000       0.06450000       2.58610000
C        0.40330000      -0.01220000       3.89820000
C        0.87530000       0.71390000       5.11260000
N       -0.37430000       1.09340000       4.46540000
C       -0.42240000       2.38500000       3.79810000
H        2.68390000      -1.33900000       0.65480000
H        2.26850000      -1.41550000      -1.06600000
H        2.64790000       0.14660000      -0.32510000
H       -0.95640000      -1.88660000       0.52370000
H        0.60290000      -2.37360000       1.35110000
H       -0.57800000       0.50710000       1.33370000
H        1.96780000      -0.67880000       2.62240000
H        1.65140000       1.04020000       2.48030000
H       -0.08680000      -0.97450000       4.04680000
H        0.79270000       0.27080000       6.10210000
H        1.73420000       1.37370000       4.98360000
H        0.52680000       2.71030000       3.34350000
H       -1.18850000       2.36490000       3.01600000
H       -0.71250000       3.14300000       4.53290000
