23
Properties=species:S:1:pos:R:3 gdb_107064=T pbc="F F F"
C        0.06550000       1.29320000       0.31640000
O       -0.05480000       0.00450000      -0.25450000
C       -1.32810000      -0.54720000      -0.13870000
C       -1.74470000      -1.15660000       1.17900000
C       -1.47010000      -2.03770000      -0.03150000
C       -2.65290000      -2.48230000      -0.88520000
C       -3.47780000      -3.63240000      -0.30540000
C       -3.46320000      -1.17770000      -1.10120000
C       -2.43040000      -0.03120000      -1.05930000
H        1.11220000       1.59040000       0.21570000
H       -0.56180000       2.03430000      -0.19920000
H       -0.20610000       1.29040000       1.38180000
H       -0.98420000      -1.17570000       1.95190000
H       -2.75730000      -1.03040000       1.54920000
H       -0.58190000      -2.65910000       0.00500000
H       -2.24720000      -2.80140000      -1.85550000
H       -3.86610000      -3.37380000       0.68610000
H       -4.33210000      -3.87040000      -0.94880000
H       -2.87670000      -4.54160000      -0.20030000
H       -4.03400000      -1.19480000      -2.03370000
H       -4.19270000      -1.05980000      -0.29150000
H       -2.87360000       0.91670000      -0.73550000
H       -1.98640000       0.13350000      -2.04850000
