17
Properties=species:S:1:pos:R:3 gdb_71703=T pbc="F F F"
C       -0.03480000       1.42370000      -0.04070000
C        0.02140000      -0.07220000       0.00520000
O       -0.29890000      -0.70870000      -1.21030000
C       -0.17200000      -2.05720000      -0.86480000
C       -0.56640000      -2.31970000       0.59150000
C       -0.42860000      -0.91080000       1.19370000
C        1.04650000      -0.86990000       0.79190000
C        0.89600000      -2.28880000       0.18320000
O        1.82120000      -3.30660000       0.20540000
H        0.68090000       1.81800000      -0.76870000
H       -1.03570000       1.76370000      -0.32390000
H        0.20650000       1.84330000       0.93960000
H       -0.37970000      -2.76280000      -1.65810000
H       -1.20600000      -3.12730000       0.91780000
H       -0.92540000      -0.52010000       2.07100000
H        1.90720000      -0.46620000       1.30770000
H        2.41020000      -3.19860000      -0.55070000
