19
Properties=species:S:1:pos:R:3 gdb_110379=T pbc="F F F"
O        0.01320000       1.30150000       0.30430000
C       -0.05260000      -0.02870000      -0.18290000
C       -1.44410000      -0.61520000      -0.08610000
C       -1.55090000      -2.11320000      -0.03280000
C       -1.81460000      -1.26220000       1.22350000
C       -3.28550000      -1.73300000       1.20700000
O       -4.22670000      -0.91820000       0.46400000
C       -4.10580000      -1.77330000      -0.70540000
C       -3.01380000      -2.61980000      -0.02080000
H       -0.36550000       1.30250000       1.18970000
H        0.26160000       0.02640000      -1.23070000
H        0.66530000      -0.68510000       0.33750000
H       -2.20220000      -0.02940000      -0.59680000
H       -0.69520000      -2.74190000      -0.25020000
H       -1.20610000      -1.15080000       2.11490000
H       -3.69270000      -2.09760000       2.15290000
H       -5.04080000      -2.31560000      -0.89190000
H       -3.82670000      -1.21380000      -1.60570000
H       -3.13280000      -3.70150000       0.00360000
