14
Properties=species:S:1:pos:R:3 gdb_13042=T pbc="F F F"
O        0.04510000       0.07400000       0.26950000
C        0.03350000       1.22870000      -0.00210000
O       -1.02150000       1.96850000      -0.48470000
C       -0.22790000       3.19670000      -0.49470000
C        1.00040000       2.42290000       0.01980000
C        1.57900000       2.82400000       1.38580000
C        2.62540000       1.92040000       1.84560000
C        3.49700000       1.17740000       2.20650000
H       -0.16030000       3.60850000      -1.50330000
H       -0.64940000       3.93390000       0.19340000
H        1.80090000       2.31460000      -0.71540000
H        1.98130000       3.84230000       1.30790000
H        0.77070000       2.86840000       2.12690000
H        4.25680000       0.51140000       2.53350000
