21
Properties=species:S:1:pos:R:3 gdb_52837=T pbc="F F F"
C       -0.14400000       1.41860000       0.01480000
C       -0.07060000      -0.03670000       0.00280000
C        0.02880000      -1.23960000       0.00000000
C        0.08600000      -2.69640000      -0.02000000
C        1.03750000      -3.21140000      -1.10130000
C        0.22710000      -3.29110000       1.42620000
C       -1.31740000      -3.36590000       1.53230000
C       -1.38310000      -3.28330000      -0.01450000
O       -2.40620000      -2.57950000      -0.65020000
H        0.84320000       1.86180000       0.18610000
H       -0.52060000       1.80820000      -0.93740000
H       -0.80930000       1.77880000       0.80720000
H        2.05680000      -2.84750000      -0.93810000
H        1.05950000      -4.30620000      -1.09750000
H        0.71400000      -2.87680000      -2.09180000
H        0.68870000      -4.28190000       1.38870000
H        0.75730000      -2.67830000       2.15600000
H       -1.76310000      -4.23870000       2.01360000
H       -1.73160000      -2.45970000       1.98330000
H       -1.36900000      -4.28370000      -0.45940000
H       -2.27030000      -1.64380000      -0.44810000
