17
Properties=species:S:1:pos:R:3 gdb_38500=T pbc="F F F"
C       -0.02350000       1.47690000       0.02910000
C        1.32170000       0.80410000       0.01400000
O        1.98540000       0.63140000       1.26650000
C        1.33800000      -0.38080000       1.97440000
C        0.00160000      -0.17360000       2.65950000
C        0.06710000      -0.78530000       1.28760000
O        0.38920000      -2.18690000       1.32750000
C        1.70460000      -1.86460000       1.87640000
C        0.05070000      -0.03750000      -0.01470000
H       -0.34720000       1.97290000       0.93640000
H       -0.34010000       1.97300000      -0.88310000
H        2.00770000       0.93180000      -0.81600000
H       -0.27150000      -0.80900000       3.49660000
H       -0.33020000       0.85380000       2.73530000
H        2.49550000      -2.04790000       1.14150000
H        1.91060000      -2.41380000       2.80170000
H       -0.27650000      -0.56800000      -0.89960000
