16
Properties=species:S:1:pos:R:3 gdb_34661=T pbc="F F F"
C        0.04340000      -1.21900000      -0.25590000
C       -0.00640000      -0.03030000      -0.08380000
C       -0.04000000       1.39050000       0.12130000
N       -1.14360000       2.01080000       0.07510000
C       -1.24060000       3.45940000       0.10860000
C       -0.48260000       4.18860000       1.21580000
O        0.92630000       4.11680000       1.05350000
C        1.44690000       2.86210000       1.31720000
O        1.22750000       1.89130000       0.29560000
H        0.07540000      -2.26960000      -0.41000000
H       -0.89290000       3.85360000      -0.85730000
H       -2.30180000       3.71750000       0.19670000
H       -0.73730000       5.25200000       1.18950000
H       -0.76890000       3.78530000       2.19980000
H        2.53130000       2.96560000       1.36670000
H        1.04610000       2.46260000       2.26290000
