18
Properties=species:S:1:pos:R:3 gdb_55408=T pbc="F F F"
C        0.09390000       1.49720000       0.04050000
C        0.03170000      -0.01950000      -0.03460000
O        1.06500000      -0.69350000      -0.08850000
C       -1.25760000      -0.65400000      -0.05090000
C       -1.29020000      -2.14170000      -0.14570000
N       -2.64660000      -2.47080000       0.49480000
H       -3.00950000      -3.38330000       0.21300000
H       -2.52300000      -2.46920000       1.50710000
C       -3.54500000      -1.31920000       0.11870000
C       -2.55400000      -0.10630000       0.05530000
O       -3.00020000       1.03570000       0.11980000
H        1.02820000       1.79190000       0.52360000
H        0.09910000       1.90240000      -0.97890000
H       -0.77450000       1.92240000       0.54650000
H       -1.34130000      -2.57570000      -1.15720000
H       -0.48890000      -2.64450000       0.40030000
H       -3.98670000      -1.54480000      -0.85660000
H       -4.33240000      -1.18790000       0.86130000
