18
Properties=species:S:1:pos:R:3 gdb_113119=T pbc="F F F"
C        0.24450000       1.51240000       0.15850000
C       -0.27140000       0.10720000      -0.17260000
C        0.45710000      -0.49110000      -1.35200000
N        1.77550000      -1.06270000      -1.09880000
C        0.66860000      -1.98340000      -1.51030000
C        0.20650000      -2.90620000      -0.50120000
C       -0.20240000      -3.68100000       0.32090000
C        0.69570000      -2.50240000      -2.85650000
C        0.74030000      -2.92450000      -3.98140000
H        1.31190000       1.48310000       0.39750000
H        0.10570000       2.19970000      -0.68360000
H       -0.28530000       1.93040000       1.01950000
H       -0.14780000      -0.55250000       0.69080000
H       -1.34380000       0.14010000      -0.40090000
H        0.31650000       0.03170000      -2.29750000
H        2.39090000      -0.92970000      -1.89820000
H       -0.55310000      -4.36820000       1.05060000
H        0.77140000      -3.30560000      -4.97220000
