17
Properties=species:S:1:pos:R:3 gdb_13170=T pbc="F F F"
C       -0.14620000       1.50100000      -0.00060000
C        0.03370000      -0.02910000      -0.01460000
C        0.70320000      -0.46100000      -1.24740000
N        1.24710000      -0.80280000      -2.20840000
C        0.81310000      -0.53560000       1.20940000
C        0.04160000      -0.52420000       2.54940000
O        0.07240000      -1.96030000       2.63340000
C        0.85040000      -2.06550000       1.42270000
H        0.82390000       2.00510000      -0.02650000
H       -0.72880000       1.83630000      -0.86170000
H       -0.67060000       1.80530000       0.90960000
H       -0.95740000      -0.50250000      -0.00740000
H        1.79170000      -0.05180000       1.24470000
H        0.56390000      -0.04930000       3.38890000
H       -0.98480000      -0.13520000       2.50680000
H        0.34490000      -2.66500000       0.65540000
H        1.84380000      -2.49040000       1.60700000
