16
Properties=species:S:1:pos:R:3 gdb_84479=T pbc="F F F"
O       -0.01320000       1.45390000      -0.06400000
C        0.04500000       0.04010000      -0.04520000
C        0.73960000      -0.51800000       1.19070000
C       -0.04090000      -1.33320000       1.89830000
C       -1.38670000      -1.45510000       1.25890000
N       -2.11110000      -0.13980000       1.17410000
C       -1.34970000      -0.60830000       0.02140000
C       -2.19480000      -2.69010000       1.30610000
O       -1.86150000      -3.70490000       1.86520000
H       -0.58450000       1.70070000       0.67580000
H        0.56270000      -0.24600000      -0.96740000
H        1.74130000      -0.20220000       1.45740000
H        0.20770000      -1.84290000       2.81980000
H       -3.10630000      -0.30560000       1.01800000
H       -1.87320000      -0.88960000      -0.88620000
H       -3.17210000      -2.61020000       0.77120000
