18
Properties=species:S:1:pos:R:3 gdb_97791=T pbc="F F F"
C        0.03600000       1.38010000      -0.39690000
C       -0.08650000       0.19050000       0.57330000
C       -1.38340000      -0.47320000       0.50150000
C       -2.46110000      -1.00500000       0.41370000
C       -3.75090000      -1.63820000       0.36420000
N       -4.45030000      -1.69970000      -0.92470000
C       -3.99820000      -2.96480000      -0.32230000
C       -2.89270000      -3.65610000      -1.04530000
O       -2.69490000      -4.84290000      -0.97720000
H        1.02300000       1.84280000      -0.30650000
H       -0.09900000       1.05300000      -1.43120000
H       -0.72230000       2.13730000      -0.18110000
H        0.70620000      -0.53910000       0.36370000
H        0.08490000       0.53430000       1.60140000
H       -4.36200000      -1.49100000       1.25340000
H       -5.45170000      -1.58930000      -0.78860000
H       -4.71830000      -3.62960000       0.14810000
H       -2.26230000      -2.97870000      -1.65810000
