16
Properties=species:S:1:pos:R:3 gdb_35496=T pbc="F F F"
C       -0.66660000      -1.15780000      -0.63820000
C       -0.37380000      -0.03050000      -0.34070000
C       -0.04130000       1.32420000       0.04290000
C       -0.03560000       1.67840000       1.57590000
C        1.35840000       2.32460000       1.42220000
O        2.41360000       1.63000000       2.12150000
C        2.90870000       0.75030000       1.21100000
N        2.46920000       0.74240000       0.02110000
C        1.45580000       1.79860000      -0.04150000
H       -0.91250000      -2.15410000      -0.91070000
H       -0.67390000       2.02800000      -0.50830000
H       -0.83940000       2.34120000       1.90110000
H       -0.01240000       0.79960000       2.22170000
H        1.44720000       3.38910000       1.63760000
H        3.68680000       0.10110000       1.59670000
H        1.67360000       2.48760000      -0.86050000
