23
Properties=species:S:1:pos:R:3 gdb_59475=T pbc="F F F"
C       -0.05040000       1.55540000      -0.13230000
C        0.01430000       0.05740000       0.17760000
O        0.65470000      -0.17910000       1.43180000
C       -1.35560000      -0.58740000       0.10900000
C       -1.86790000      -1.18550000      -1.18250000
C       -1.54400000      -2.08370000      -0.01240000
C       -0.39740000      -3.04460000      -0.05440000
C       -0.08990000      -3.90810000       1.14160000
C       -0.66310000      -4.53070000      -0.10820000
H        0.94590000       2.00040000      -0.06460000
H       -0.45090000       1.73400000      -1.13530000
H       -0.70330000       2.06980000       0.58420000
H        0.67520000      -0.42150000      -0.55370000
H        0.06610000       0.14170000       2.12380000
H       -2.09960000      -0.07110000       0.71570000
H       -2.90430000      -1.02870000      -1.46110000
H       -1.18260000      -1.20400000      -2.02530000
H       -2.40590000      -2.47520000       0.52460000
H        0.46400000      -2.70410000      -0.62050000
H        0.94890000      -4.09680000       1.38740000
H       -0.73910000      -3.81840000       2.00660000
H       -1.69740000      -4.85910000      -0.08370000
H       -0.01780000      -5.14990000      -0.72170000
