18
Properties=species:S:1:pos:R:3 gdb_16612=T pbc="F F F"
C        0.07210000       1.50730000       0.13260000
C       -0.00380000       0.01850000       0.00440000
C       -0.05340000      -0.72170000      -1.11670000
C       -0.09130000      -0.27700000      -2.54530000
C       -0.01600000      -2.17700000      -0.76030000
O        1.20080000      -2.57460000      -0.07980000
C        0.04500000      -2.27110000       0.70440000
C        0.01580000      -0.85310000       1.25320000
H        1.01620000       1.81350000       0.60180000
H        0.00090000       2.01480000      -0.83220000
H       -0.73170000       1.88860000       0.77570000
H       -0.17230000       0.80810000      -2.64290000
H        0.81120000      -0.59640000      -3.08200000
H       -0.94310000      -0.72340000      -3.07400000
H       -0.44700000      -2.93840000      -1.40520000
H       -0.36650000      -3.10160000       1.27190000
H        0.88660000      -0.64430000       1.88750000
H       -0.87510000      -0.68640000       1.87450000
