25
Properties=species:S:1:pos:R:3 gdb_123259=T pbc="F F F"
C        0.00940000       1.51630000      -0.04560000
C        0.01520000      -0.00290000      -0.02050000
O        0.67260000      -0.47180000      -1.17860000
C        0.73350000      -1.87870000      -1.25620000
C        1.45920000      -2.26720000      -2.53740000
C        1.57370000      -3.78430000      -2.70870000
C        2.29970000      -4.17440000      -3.98890000
O        2.35820000      -5.58230000      -4.06390000
C        3.01430000      -6.04290000      -5.21880000
H        1.03210000       1.90350000      -0.06610000
H       -0.51260000       1.88320000      -0.93400000
H       -0.49430000       1.91140000       0.84170000
H        0.52750000      -0.37270000       0.88470000
H       -1.01670000      -0.39300000       0.01630000
H        1.26100000      -2.29010000      -0.37750000
H       -0.28360000      -2.30900000      -1.24670000
H        0.92360000      -1.82690000      -3.38730000
H        2.45560000      -1.80870000      -2.52500000
H        2.10890000      -4.22460000      -1.85840000
H        0.57730000      -4.24270000      -2.72150000
H        1.77340000      -3.76460000      -4.86920000
H        3.31790000      -3.74670000      -3.99880000
H        3.00860000      -7.13530000      -5.18690000
H        2.50630000      -5.71230000      -6.13930000
H        4.05910000      -5.69490000      -5.26400000
