19
Properties=species:S:1:pos:R:3 gdb_92552=T pbc="F F F"
O        0.28310000       1.35310000       0.34770000
C        0.08200000      -0.02750000       0.06430000
C       -1.41000000      -0.39750000       0.06730000
C       -1.63090000      -1.86570000      -0.30400000
C       -2.86550000      -2.15950000      -1.18440000
O       -2.05050000      -2.28120000      -2.36930000
C       -0.84050000      -2.30450000      -1.55980000
C        0.25390000      -1.40180000      -2.02400000
C        0.70860000      -0.41090000      -1.25730000
H       -0.13200000       1.85710000      -0.36150000
H        0.59330000      -0.54480000       0.88740000
H       -1.85050000      -0.16250000       1.04090000
H       -1.90300000       0.24290000      -0.67610000
H       -1.50410000      -2.51510000       0.56520000
H       -3.37780000      -3.10150000      -0.94600000
H       -3.60910000      -1.35920000      -1.27540000
H       -0.46730000      -3.33800000      -1.48920000
H        0.70400000      -1.61880000      -2.98960000
H        1.55490000       0.19860000      -1.56560000
