19
Properties=species:S:1:pos:R:3 gdb_121516=T pbc="F F F"
C       -0.05640000       1.37430000       0.08010000
O       -0.00570000      -0.03150000       0.02000000
C        0.64870000      -0.50810000      -1.13190000
C        0.63140000      -2.04080000      -1.06840000
C        1.28360000      -2.65440000      -2.21350000
C        1.83090000      -3.14690000      -3.17470000
C        2.44510000      -3.70330000      -4.25340000
C        2.99160000      -4.19830000      -5.21320000
C        3.64690000      -4.79310000      -6.36420000
H        0.95120000       1.81890000       0.09890000
H       -0.60260000       1.80030000      -0.77630000
H       -0.57850000       1.64340000       1.00140000
H        0.14120000      -0.16250000      -2.04690000
H        1.68790000      -0.14390000      -1.17570000
H        1.11900000      -2.35520000      -0.13720000
H       -0.41180000      -2.37360000      -0.99940000
H        3.63600000      -5.88750000      -6.30470000
H        3.14880000      -4.50630000      -7.29740000
H        4.69330000      -4.47480000      -6.43420000
