18
Properties=species:S:1:pos:R:3 gdb_1627=T pbc="F F F"
C       -0.00900000       1.56020000      -0.02000000
C       -0.03500000       0.02630000       0.05110000
C        0.78560000      -0.50190000       1.23710000
N       -1.40080000      -0.50120000       0.04880000
C       -2.31610000      -0.17640000       1.13130000
C       -1.83780000      -1.30460000      -0.96420000
O       -2.94530000      -1.79210000      -1.06000000
H        1.02040000       1.91300000      -0.13460000
H       -0.59350000       1.92140000      -0.87090000
H       -0.41200000       2.01350000       0.89100000
H        0.42310000      -0.35760000      -0.86810000
H        0.76570000      -1.59490000       1.26930000
H        1.82720000      -0.17910000       1.14670000
H        0.40650000      -0.12330000       2.19160000
H       -2.50720000       0.90080000       1.18530000
H       -3.25320000      -0.69430000       0.92690000
H       -1.92490000      -0.50950000       2.09820000
H       -1.04600000      -1.47300000      -1.72090000
