20
Properties=species:S:1:pos:R:3 gdb_69725=T pbc="F F F"
C       -0.01760000       1.51550000       0.02750000
C       -0.00920000       0.00800000      -0.00380000
C       -0.63110000      -0.82590000       1.10110000
C        0.85570000      -0.88230000       0.85530000
N        1.39690000      -1.91310000      -0.05240000
C        0.28270000      -2.25320000      -1.05210000
C        1.35360000      -2.42810000      -2.14170000
C        1.71180000      -1.15920000      -1.36040000
C        0.19710000      -0.72360000      -1.32740000
H        0.82020000       1.93040000      -0.54560000
H       -0.94220000       1.92600000      -0.39570000
H        0.06590000       1.88890000       1.05340000
H       -0.94150000      -0.28800000       1.99250000
H       -1.26130000      -1.67700000       0.86930000
H        1.55020000      -0.51200000       1.60090000
H       -0.52020000      -2.94470000      -0.79330000
H        2.02700000      -3.27660000      -2.01450000
H        1.02790000      -2.29970000      -3.17520000
H        2.59420000      -0.52080000      -1.44260000
H       -0.30040000      -0.34790000      -2.22560000
