23
Properties=species:S:1:pos:R:3 gdb_109579=T pbc="F F F"
C       -0.98200000       0.53720000      -1.54020000
C        0.06700000      -0.38420000      -0.93130000
C        1.54440000      -0.24270000      -1.38080000
O        1.80170000       1.10780000      -1.73480000
C        1.97520000      -0.60810000       0.07280000
C        3.20840000       0.05880000       0.66750000
C        0.53290000      -0.23570000       0.55870000
C        0.38620000       1.15290000       1.17970000
O       -0.95150000       1.42830000       1.58110000
H       -0.71070000       1.59080000      -1.43160000
H       -1.09090000       0.34640000      -2.61320000
H       -1.96320000       0.36910000      -1.08080000
H       -0.23340000      -1.42510000      -1.09340000
H        1.88550000      -0.91740000      -2.17880000
H        2.75120000       1.20920000      -1.85440000
H        2.09060000      -1.69660000       0.12970000
H        3.16980000       1.14750000       0.56990000
H        3.31190000      -0.17590000       1.73200000
H        4.12020000      -0.29190000       0.16890000
H        0.07950000      -0.95270000       1.25010000
H        0.98200000       1.20450000       2.09780000
H        0.76690000       1.92580000       0.49960000
H       -1.47420000       1.55020000       0.78360000
