18
Properties=species:S:1:pos:R:3 gdb_13072=T pbc="F F F"
C        0.14980000       1.56530000      -0.14910000
C        0.08610000       0.11670000      -0.02560000
C        0.03880000      -1.08240000       0.08350000
C       -0.00670000      -2.52930000       0.20590000
O        0.00580000      -2.99850000       1.58090000
C       -1.26340000      -3.66480000       1.42620000
C       -1.36920000      -3.25550000      -0.05780000
C       -2.56980000      -2.42290000      -0.47420000
H        1.04010000       1.88080000      -0.70400000
H       -0.72760000       1.95970000      -0.67340000
H        0.18710000       2.04090000       0.83710000
H        0.83180000      -2.96970000      -0.35000000
H       -1.18920000      -4.74000000       1.62970000
H       -2.03290000      -3.23180000       2.07940000
H       -1.23780000      -4.10000000      -0.73880000
H       -2.70470000      -1.56430000       0.19000000
H       -2.45290000      -2.04050000      -1.49310000
H       -3.48330000      -3.02680000      -0.44420000
