18
Properties=species:S:1:pos:R:3 gdb_62805=T pbc="F F F"
C        0.25100000       1.58610000       0.03820000
C        0.15200000       0.08260000      -0.04990000
O       -1.05450000      -0.45090000       0.43540000
C        0.61980000      -0.75200000      -1.21410000
C        1.94470000      -0.24600000      -1.80280000
N        2.54040000      -0.35450000      -0.45720000
C        3.56000000       0.36750000       0.07270000
O        4.33380000       1.04360000      -0.57270000
C        1.32040000      -0.86740000       0.14580000
H        1.19770000       1.96630000      -0.35100000
H       -0.56640000       2.04870000      -0.52350000
H        0.17100000       1.91200000       1.08260000
H       -1.11510000      -0.23840000       1.37380000
H       -0.04490000      -1.46470000      -1.68100000
H        2.40130000      -0.94450000      -2.51010000
H        1.96810000       0.76280000      -2.22520000
H        3.62640000       0.23650000       1.17300000
H        1.32120000      -1.67710000       0.86620000
