24
Properties=species:S:1:pos:R:3 gdb_109771=T pbc="F F F"
C       -1.14370000       2.12990000      -1.00340000
C       -0.90530000       0.76330000      -1.64480000
N       -1.60460000      -0.27730000      -0.89600000
C       -1.41490000      -1.69260000      -1.21500000
C       -0.47820000      -2.19120000      -2.29570000
C       -0.92770000      -1.13690000       0.08480000
C        0.55320000      -1.09330000       0.43480000
C        0.82940000      -0.20880000       1.65170000
O        1.04950000      -2.41760000       0.64360000
H       -0.67350000       2.92190000      -1.59520000
H       -2.21540000       2.33390000      -0.93060000
H       -0.72680000       2.17230000       0.00770000
H       -1.32390000       0.76070000      -2.65860000
H        0.17620000       0.59400000      -1.75870000
H       -2.35150000      -2.25140000      -1.18390000
H        0.46610000      -1.64620000      -2.33420000
H       -0.23980000      -3.24450000      -2.12010000
H       -0.95190000      -2.11310000      -3.28050000
H       -1.54490000      -1.32130000       0.96880000
H        1.13750000      -0.72200000      -0.41080000
H        0.25340000      -0.55440000       2.51920000
H        1.89120000      -0.24250000       1.90980000
H        0.54720000       0.83110000       1.46030000
H        0.53370000      -2.81300000       1.35540000
