17
Properties=species:S:1:pos:R:3 gdb_33651=T pbc="F F F"
C       -0.01990000      -1.23430000      -0.00940000
C       -0.01760000      -0.03010000       0.00000000
C       -0.02020000       1.39070000       0.02000000
C       -0.66350000       2.35100000       1.12040000
C        0.72670000       3.01110000       1.31170000
C        1.20780000       2.36820000      -0.00650000
O        0.68820000       3.05620000      -1.16160000
C       -0.58080000       2.37980000      -1.06230000
C       -1.49620000       3.02560000      -0.00050000
H       -0.01870000      -2.29590000      -0.02320000
H       -1.18580000       1.98130000       2.00110000
H        0.77760000       4.10120000       1.37400000
H        1.25200000       2.56970000       2.16490000
H        2.25200000       2.07820000      -0.13140000
H       -0.97870000       2.09920000      -2.03850000
H       -2.50130000       2.59410000      -0.05070000
H       -1.56490000       4.11640000      -0.00880000
