16
Properties=species:S:1:pos:R:3 gdb_66677=T pbc="F F F"
C        0.01730000       1.50810000       0.03710000
C       -0.05440000       0.02480000      -0.06570000
C        0.55020000      -0.98450000      -1.08420000
C        0.81680000      -1.89300000       0.05700000
N        0.26460000      -0.90800000       1.07880000
C       -1.07200000      -0.97130000       0.36880000
C       -0.54450000      -2.00930000      -0.63390000
C       -1.11250000      -3.09680000      -1.40930000
O       -2.28310000      -3.40710000      -1.41170000
H        1.05620000       1.85470000       0.02160000
H       -0.51840000       1.98660000      -0.78980000
H       -0.43660000       1.83570000       0.97720000
H        0.99660000      -0.89820000      -2.06520000
H        1.56820000      -2.64820000       0.25020000
H       -2.01510000      -0.86430000       0.88910000
H       -0.36090000      -3.64770000      -2.02260000
