20
Properties=species:S:1:pos:R:3 gdb_86939=T pbc="F F F"
C       -0.20700000       1.57970000      -0.16190000
C       -0.00000000       0.07290000      -0.02500000
C        0.72870000      -0.58660000      -1.22910000
O        0.71030000       0.18440000      -2.40250000
C        2.00570000      -0.57670000      -0.34820000
N        1.13450000      -0.38170000       0.82390000
C        1.60310000       0.37930000       1.95540000
C        2.48030000      -0.48120000       2.85400000
O        3.43330000      -0.07960000       3.46810000
H        0.71120000       2.09670000      -0.45250000
H       -0.95630000       1.78000000      -0.93270000
H       -0.56670000       2.00940000       0.77850000
H       -0.94720000      -0.40130000       0.26050000
H        0.36710000      -1.60600000      -1.40950000
H        1.15210000      -0.30880000      -3.10010000
H        2.62950000      -1.47730000      -0.31900000
H        2.63940000       0.29300000      -0.58510000
H        2.15270000       1.30300000       1.70810000
H        0.73500000       0.66830000       2.56680000
H        2.14740000      -1.54300000       2.90180000
