22
Properties=species:S:1:pos:R:3 gdb_32903=T pbc="F F F"
C       -0.20510000       1.52900000      -0.04060000
C       -0.14590000       0.00040000      -0.08310000
C        0.83820000      -0.53110000      -1.14510000
C        0.92970000      -2.02230000      -1.20750000
C        1.92370000      -2.88930000      -0.81350000
C        1.47850000      -4.21640000      -1.07870000
C        0.22040000      -4.13710000      -1.63080000
C       -0.71540000      -5.19820000      -2.10750000
N       -0.09910000      -2.79860000      -1.70030000
H        0.77700000       1.95590000       0.19160000
H       -0.52260000       1.94180000      -1.00500000
H       -0.90900000       1.88080000       0.72000000
H        0.14850000      -0.39340000       0.89670000
H       -1.14780000      -0.40220000      -0.28110000
H        0.55410000      -0.12310000      -2.12680000
H        1.83900000      -0.13790000      -0.93430000
H        2.87000000      -2.59750000      -0.38250000
H        2.02040000      -5.13160000      -0.89130000
H       -1.67060000      -5.18630000      -1.56650000
H       -0.94690000      -5.10130000      -3.17620000
H       -0.26590000      -6.18250000      -1.95740000
H       -0.96010000      -2.43630000      -2.07300000
