21
Properties=species:S:1:pos:R:3 gdb_63532=T pbc="F F F"
C       -0.08890000       1.50610000       0.02700000
C       -0.02410000      -0.00960000       0.02760000
C       -1.24660000      -0.68990000      -0.55880000
C        1.33010000      -0.65960000      -0.19230000
C        0.68720000      -0.68450000       1.16810000
C        1.27840000      -0.09100000       2.47660000
C        0.82910000      -1.38520000       3.17980000
O       -0.58600000      -1.50540000       3.00420000
C        0.27320000      -1.93080000       1.93150000
H        0.81250000       1.95090000       0.45880000
H       -0.19400000       1.89160000      -0.99410000
H       -0.94830000       1.86340000       0.60640000
H       -1.40550000      -0.38030000      -1.59850000
H       -1.14720000      -1.77930000      -0.54880000
H       -2.14800000      -0.43360000       0.00920000
H        1.36910000      -1.58810000      -0.75540000
H        2.19510000      -0.01840000      -0.33560000
H        2.36530000       0.02310000       2.43680000
H        0.82320000       0.82380000       2.86470000
H        1.27020000      -1.88390000       4.03470000
H        0.16850000      -2.95300000       1.58620000
