16
Properties=species:S:1:pos:R:3 gdb_97244=T pbc="F F F"
C        0.42280000       1.46060000       0.14630000
N        0.51720000       0.01390000       0.09640000
C        0.55400000      -0.57560000      -1.01820000
O        0.53480000       0.08580000      -2.21900000
C        0.38330000      -0.71010000      -3.39000000
O        1.29290000      -1.75690000      -3.42280000
C        0.98670000      -2.71540000      -2.42300000
C        0.68630000      -2.09270000      -1.05950000
O        0.55350000      -2.78040000      -0.08150000
H       -0.18290000       1.74050000       1.01290000
H        1.42500000       1.87760000       0.30810000
H        0.00610000       1.91480000      -0.75910000
H       -0.65450000      -1.08100000      -3.44370000
H        0.59470000      -0.04880000      -4.23070000
H        0.11540000      -3.32480000      -2.71340000
H        1.84580000      -3.38330000      -2.32610000
