19
Properties=species:S:1:pos:R:3 gdb_89350=T pbc="F F F"
C       -0.11040000       1.65280000      -0.17720000
C        0.03040000       0.14310000      -0.01770000
C        1.10730000      -0.60240000      -0.88950000
C        1.77460000      -1.14970000       0.36560000
O        2.12510000      -2.46470000       0.46850000
C        2.17760000      -0.10000000       1.31210000
C        0.67810000      -0.40180000       1.26510000
C        0.06860000      -1.19280000       2.31350000
O        0.71010000      -1.91270000       3.06610000
H        0.84430000       2.16870000      -0.03180000
H       -0.47380000       1.90640000      -1.17870000
H       -0.82110000       2.05780000       0.55090000
H       -0.94560000      -0.33100000      -0.16420000
H        0.67680000      -1.39750000      -1.49960000
H        1.74610000       0.02690000      -1.51780000
H        2.12740000      -2.69380000       1.41170000
H        2.65270000      -0.45360000       2.22130000
H        2.51190000       0.87560000       0.96810000
H       -1.04250000      -1.18460000       2.34880000
