18
Properties=species:S:1:pos:R:3 gdb_55708=T pbc="F F F"
C        0.10250000       1.57550000      -0.53530000
C        0.57760000       0.14850000      -0.35570000
O        1.75850000      -0.12940000      -0.35290000
C       -0.51990000      -0.88840000      -0.14030000
C       -0.25260000      -2.32970000      -0.58240000
C        0.59440000      -2.62860000      -1.77900000
N        1.08260000      -2.95130000      -0.43570000
C       -1.36940000      -3.19890000      -0.28900000
C       -2.33120000      -3.87670000      -0.04190000
H        0.95220000       2.25850000      -0.51310000
H       -0.41830000       1.66970000      -1.49570000
H       -0.62040000       1.84430000       0.24280000
H       -0.72490000      -0.88570000       0.94110000
H       -1.44670000      -0.53800000      -0.60780000
H        0.33980000      -3.48150000      -2.40050000
H        1.04160000      -1.78860000      -2.30300000
H        1.73270000      -2.21800000      -0.15610000
H       -3.16500000      -4.49730000       0.17500000
