13
Properties=species:S:1:pos:R:3 gdb_130989=T pbc="F F F"
O       -0.20470000       0.18620000       0.52960000
C        0.04580000       1.11280000      -0.19020000
C        1.37020000       1.85540000      -0.13240000
O        1.31650000       2.88920000      -1.12420000
C        2.37980000       3.66950000      -1.25140000
C        2.55020000       4.71670000      -2.12990000
N        3.79570000       5.20550000      -1.88290000
N        4.40810000       4.61360000      -0.98760000
O        3.43410000       3.49890000      -0.49970000
H       -0.66460000       1.50020000      -0.95180000
H        1.51890000       2.28150000       0.86590000
H        2.19700000       1.16550000      -0.33410000
H        1.88950000       5.11850000      -2.87580000
