19
Properties=species:S:1:pos:R:3 gdb_26236=T pbc="F F F"
C        0.25350000       1.21650000       1.06160000
C       -0.14620000       0.31730000      -0.10650000
O        0.73180000      -0.80860000      -0.24460000
C       -1.57060000      -0.14110000      -0.02150000
C       -2.67330000       0.24980000       0.69420000
N       -3.77050000      -0.51530000       0.36550000
C       -3.34900000      -1.37310000      -0.54070000
C       -4.17450000      -2.42920000      -1.19620000
N       -2.02450000      -1.17920000      -0.81340000
H        1.30310000       1.50340000       0.96300000
H       -0.35670000       2.12440000       1.08380000
H        0.11820000       0.69590000       2.01600000
H        0.00910000       0.87000000      -1.04310000
H        0.65660000      -1.32640000       0.56600000
H       -2.74460000       1.04370000       1.42210000
H       -4.21730000      -2.29870000      -2.28380000
H       -3.78410000      -3.43470000      -1.00010000
H       -5.18950000      -2.37110000      -0.80150000
H       -1.43160000      -1.72640000      -1.41630000
