21
Properties=species:S:1:pos:R:3 gdb_53790=T pbc="F F F"
C       -0.08680000       1.53080000      -0.09810000
C       -0.07400000      -0.00520000      -0.01950000
C        0.69010000      -0.44610000       1.25210000
C       -1.52770000      -0.53070000       0.02480000
C        0.64040000      -0.54500000      -1.26470000
O        1.13060000       0.19780000      -2.09140000
C        0.77640000      -2.05550000      -1.52400000
N        1.31040000      -2.29750000      -2.75660000
N        0.39500000      -2.90570000      -0.64380000
H        0.92640000       1.93860000      -0.13580000
H       -0.61580000       1.88180000      -0.98810000
H       -0.59060000       1.93560000       0.78520000
H        0.20600000      -0.00360000       2.12940000
H        0.69260000      -1.53070000       1.35550000
H        1.72600000      -0.09030000       1.23150000
H       -2.08020000      -0.23940000      -0.87530000
H       -1.55320000      -1.61610000       0.11680000
H       -2.04100000      -0.08770000       0.88490000
H        1.70400000      -1.49970000      -3.23270000
H        1.66330000      -3.21290000      -2.97690000
H        0.56210000      -3.86550000      -0.95490000
