18
Properties=species:S:1:pos:R:3 gdb_111488=T pbc="F F F"
O        0.17620000       1.47530000      -0.13240000
C        0.07080000       0.08330000       0.11580000
C       -1.37360000      -0.44140000       0.06880000
N       -2.16460000      -0.22570000       1.28810000
C       -2.51700000       1.18520000       1.53340000
C       -3.50260000       0.28870000       0.87920000
C       -3.61060000       0.36370000      -0.63000000
C       -2.17050000       0.15860000      -1.10210000
O       -1.71420000       0.45530000      -2.17890000
H       -0.02800000       1.60090000      -1.06680000
H        0.67560000      -0.49070000      -0.59910000
H        0.47480000      -0.09210000       1.11680000
H       -1.32990000      -1.52920000      -0.09440000
H       -2.63450000       1.43580000       2.58330000
H       -2.02240000       1.94720000       0.93760000
H       -4.34420000      -0.09820000       1.44470000
H       -4.23090000      -0.44700000      -1.03300000
H       -4.01050000       1.30420000      -1.01770000
