15
Properties=species:S:1:pos:R:3 gdb_74515=T pbc="F F F"
N        0.12540000       1.35820000      -0.51130000
C       -0.06470000       0.04860000      -0.18420000
N       -1.16610000      -0.60550000      -0.20510000
C       -0.81800000      -1.97090000       0.07800000
C        0.14650000      -2.66800000      -0.87960000
C        0.70710000      -1.97150000       0.30630000
O        1.08500000      -0.61830000       0.14660000
C       -1.74260000      -2.78610000       0.89810000
O       -1.54920000      -3.94440000       1.18560000
H        0.92130000       1.80470000      -0.08200000
H       -0.71990000       1.90740000      -0.52690000
H        0.13460000      -3.75090000      -0.82140000
H        0.27090000      -2.22860000      -1.86330000
H        1.22150000      -2.47710000       1.11260000
H       -2.64070000      -2.23170000       1.24380000
