13
Properties=species:S:1:pos:R:3 gdb_9246=T pbc="F F F"
O        0.10900000       1.41770000      -0.05420000
C        0.11120000       0.01750000       0.04140000
C       -1.34050000      -0.50810000       0.05400000
O       -2.04010000      -0.01410000      -1.08850000
C       -1.39230000      -1.96320000       0.14930000
C       -1.39310000      -3.17090000       0.19350000
C       -1.40460000      -4.53530000       0.24860000
N       -1.41220000      -5.69590000       0.29300000
H       -0.50620000       1.63880000      -0.76540000
H        0.65120000      -0.46090000      -0.79330000
H        0.61870000      -0.25630000       0.97100000
H       -1.85420000      -0.06470000       0.91480000
H       -1.76180000      -0.52800000      -1.85650000
