17
Properties=species:S:1:pos:R:3 gdb_14958=T pbc="F F F"
C       -0.03030000       1.42710000       0.45870000
N       -0.00640000      -0.02240000       0.32490000
C       -0.97840000      -0.58740000      -0.25340000
C       -0.99010000      -2.09040000      -0.43110000
C       -2.37350000      -2.66180000      -0.55180000
C       -3.37900000      -1.90990000      -0.98240000
C       -3.17090000      -0.47150000      -1.34000000
O       -2.02860000       0.13890000      -0.73160000
H        0.87840000       1.75270000       0.97110000
H       -0.07900000       1.93110000      -0.51570000
H       -0.89710000       1.77130000       1.03830000
H       -0.41020000      -2.34010000      -1.33290000
H       -0.43430000      -2.52090000       0.40460000
H       -2.51860000      -3.70800000      -0.30080000
H       -4.38270000      -2.30320000      -1.11030000
H       -3.08310000      -0.35390000      -2.43140000
H       -4.02780000       0.13590000      -1.02700000
