11
Properties=species:S:1:pos:R:3 gdb_132261=T pbc="F F F"
F       -0.01880000       0.05910000       0.00350000
C       -0.01410000       1.37690000       0.01070000
N       -1.18640000       1.96870000       0.02980000
C       -1.14960000       3.30700000       0.03660000
N       -0.06940000       4.08490000       0.02630000
C        1.10290000       3.44050000       0.00690000
C        1.20080000       2.05730000      -0.00200000
C       -2.42970000       3.97920000       0.05780000
N       -3.45210000       4.51690000       0.07470000
H        1.99420000       4.06140000      -0.00170000
H        2.14650000       1.53250000      -0.01770000
