21
Properties=species:S:1:pos:R:3 gdb_120968=T pbc="F F F"
C        0.30070000       1.36230000      -0.66830000
O        0.00490000       0.00170000      -0.87220000
C        0.87690000      -0.86300000      -0.18010000
C        0.44740000      -2.29690000      -0.48370000
C        0.64700000      -2.71420000      -1.96610000
C        1.70420000      -3.80680000      -1.91970000
C        3.06050000      -3.45440000      -1.33070000
C        1.97930000      -4.05340000      -0.46870000
O        1.21550000      -3.19250000       0.33280000
H        0.22530000       1.64150000       0.39440000
H        1.31420000       1.61700000      -1.01720000
H       -0.42600000       1.94550000      -1.23930000
H        1.92180000      -0.69830000      -0.49370000
H        0.82890000      -0.68980000       0.90700000
H       -0.60500000      -2.39250000      -0.18900000
H       -0.28250000      -3.11170000      -2.38280000
H        0.93170000      -1.85230000      -2.57680000
H        1.64230000      -4.61860000      -2.63470000
H        3.89810000      -4.08940000      -1.60110000
H        3.31600000      -2.41010000      -1.18450000
H        2.09490000      -5.03730000      -0.02790000
