27
Properties=species:S:1:pos:R:3 gdb_115710=T pbc="F F F"
C       -0.02970000       1.69430000      -0.28400000
C        0.02650000       0.18850000      -0.00220000
C       -1.36300000      -0.45480000       0.03940000
C       -1.99990000      -0.65260000      -1.37010000
C       -1.56940000      -2.14130000      -1.33020000
C       -1.40970000      -2.01550000       0.21050000
C       -0.29800000      -2.78080000       0.92980000
C       -0.30910000      -2.49270000       2.43820000
C       -0.41940000      -4.28910000       0.66630000
H        0.97380000       2.12980000      -0.32100000
H       -0.51860000       1.90580000      -1.24070000
H       -0.59260000       2.21900000       0.49620000
H        0.64390000      -0.30130000      -0.76690000
H        0.54090000       0.02460000       0.95250000
H       -1.98280000       0.09800000       0.75430000
H       -3.08730000      -0.53930000      -1.35220000
H       -1.60430000      -0.03800000      -2.18360000
H       -2.27360000      -2.88580000      -1.70980000
H       -0.60560000      -2.29990000      -1.82540000
H       -2.36600000      -2.27750000       0.68360000
H        0.66760000      -2.44870000       0.52380000
H       -1.24430000      -2.84330000       2.89180000
H        0.51610000      -3.00360000       2.94580000
H       -0.22100000      -1.42270000       2.65070000
H        0.38660000      -4.84250000       1.16000000
H       -1.37100000      -4.67750000       1.04910000
H       -0.37450000      -4.51570000      -0.40360000
