21
Properties=species:S:1:pos:R:3 gdb_110359=T pbc="F F F"
C       -0.44420000       0.96200000      -0.08720000
O        0.51990000      -0.05340000       0.11030000
C        0.93270000      -0.64460000      -1.08250000
C        1.50400000      -2.01550000      -1.07240000
C        0.14300000      -1.73190000      -1.76010000
C       -0.57510000      -2.60210000      -0.71460000
O       -1.27780000      -3.70820000      -1.23390000
C        0.80640000      -2.89900000      -0.01940000
C        1.23870000      -4.35970000      -0.03970000
H       -0.04330000       1.78550000      -0.69780000
H       -1.34720000       0.57450000      -0.57980000
H       -0.71030000       1.35040000       0.89850000
H        1.41440000       0.05250000      -1.77250000
H        2.47160000      -2.23140000      -1.51400000
H       -0.12320000      -1.69190000      -2.81150000
H       -1.29720000      -2.07620000      -0.08460000
H       -0.70620000      -4.16210000      -1.86220000
H        0.87690000      -2.50560000       0.99890000
H        1.25240000      -4.77460000      -1.05460000
H        2.25320000      -4.46100000       0.35960000
H        0.56950000      -4.97820000       0.56500000
