18
Properties=species:S:1:pos:R:3 gdb_41100=T pbc="F F F"
C        0.01620000       1.44730000       0.08860000
C        1.54790000       1.45120000      -0.08900000
O        1.93660000       1.29820000      -1.49240000
C        1.60320000      -0.11150000      -1.40090000
C        2.73850000      -1.16310000      -1.30170000
C        2.43730000      -1.25000000       0.25240000
C        1.44450000      -0.07910000       0.09200000
N       -0.09610000      -0.05740000      -0.02380000
C        0.09070000      -0.42020000      -1.49490000
H       -0.26270000       1.74230000       1.10560000
H       -0.57240000       2.01110000      -0.64040000
H        2.16420000       2.18000000       0.44180000
H        2.61250000      -2.08700000      -1.87110000
H        3.71230000      -0.72840000      -1.53400000
H        1.93290000      -2.17330000       0.54760000
H        3.28190000      -1.08840000       0.92550000
H       -0.50730000       0.16720000      -2.19700000
H       -0.12110000      -1.48400000      -1.63770000
