21
Properties=species:S:1:pos:R:3 gdb_99687=T pbc="F F F"
C        0.00890000       1.54130000      -0.05190000
C        0.06370000       0.01460000      -0.01100000
C        0.70250000      -0.54020000       1.29590000
C       -0.06440000      -0.15040000       2.48640000
C       -0.70180000       0.17940000       3.45290000
C       -1.46550000       0.56620000       4.63090000
C        0.86990000      -1.99660000       1.21970000
C        1.00340000      -3.18910000       1.12810000
C        1.16610000      -4.63290000       1.03180000
H        1.01310000       1.97620000       0.00730000
H       -0.44910000       1.88730000      -0.98340000
H       -0.57680000       1.93620000       0.78310000
H       -0.94150000      -0.40850000      -0.10610000
H        0.65190000      -0.36920000      -0.85130000
H        1.70360000      -0.08860000       1.37870000
H       -1.46290000      -0.23010000       5.38340000
H       -1.04940000       1.46530000       5.09900000
H       -2.51020000       0.77810000       4.37780000
H        2.21820000      -4.90800000       0.89750000
H        0.80630000      -5.13360000       1.93750000
H        0.60630000      -5.04200000       0.18340000
