20
Properties=species:S:1:pos:R:3 gdb_14991=T pbc="F F F"
O       -0.03300000       1.44780000       0.00610000
C        0.02840000       0.02830000      -0.00270000
C       -1.40250000      -0.51460000       0.03770000
C       -1.42230000      -2.03740000      -0.17080000
C       -2.80340000      -2.62300000       0.14700000
C       -3.18910000      -2.36030000       1.60980000
C       -2.86890000      -0.94850000       2.02870000
C       -2.09390000      -0.12560000       1.32290000
H        0.86160000       1.78860000       0.09300000
H        0.53330000      -0.33950000      -0.91080000
H        0.58860000      -0.35180000       0.86680000
H       -1.92850000      -0.03270000      -0.80130000
H       -1.12740000      -2.27940000      -1.19830000
H       -0.67500000      -2.50120000       0.48870000
H       -3.54840000      -2.15820000      -0.51150000
H       -2.82280000      -3.69740000      -0.06470000
H       -4.25750000      -2.56060000       1.76170000
H       -2.66510000      -3.06660000       2.27180000
H       -3.30920000      -0.60150000       2.96120000
H       -1.91430000       0.88950000       1.66520000
