20
Properties=species:S:1:pos:R:3 gdb_107212=T pbc="F F F"
C        0.04140000       1.31020000       0.35880000
O       -0.06240000       0.03390000      -0.24470000
C       -1.32640000      -0.53610000      -0.14200000
C       -1.75630000      -1.14510000       1.16920000
C       -1.47170000      -2.02660000      -0.04160000
N       -2.51540000      -2.51340000      -0.93850000
C       -3.90190000      -2.14980000      -0.61910000
C       -3.12750000      -1.32400000      -1.57910000
C       -2.41710000      -0.05270000      -1.11270000
H        1.08300000       1.62510000       0.26140000
H       -0.59960000       2.05290000      -0.13780000
H       -0.22670000       1.27720000       1.42430000
H       -0.99780000      -1.18970000       1.94410000
H       -2.76290000      -0.99670000       1.54220000
H       -0.59740000      -2.66510000       0.00710000
H       -4.64440000      -2.85120000      -0.99070000
H       -4.13630000      -1.74180000       0.35920000
H       -3.34090000      -1.41290000      -2.64110000
H       -3.10380000       0.67710000      -0.67090000
H       -1.92050000       0.42930000      -1.96010000
