19
Properties=species:S:1:pos:R:3 gdb_5317=T pbc="F F F"
C        0.14010000       1.34740000      -0.37750000
C        0.02910000      -0.10670000       0.12170000
C        0.67320000      -0.25310000       1.50650000
C       -1.40130000      -0.58640000       0.09100000
C       -2.22120000      -0.86320000       1.16450000
N       -3.44800000      -1.24990000       0.68190000
C       -3.43260000      -1.23050000      -0.68840000
C       -2.18150000      -0.82340000      -1.08340000
H        1.18670000       1.66940000      -0.42000000
H       -0.29060000       1.45840000      -1.37690000
H       -0.39870000       2.02610000       0.29290000
H        0.60260000      -0.73260000      -0.57730000
H        0.62630000      -1.28720000       1.86160000
H        1.72450000       0.05040000       1.47870000
H        0.16870000       0.38110000       2.24490000
H       -2.03530000      -0.82270000       2.22520000
H       -4.23170000      -1.51990000       1.24890000
H       -4.30390000      -1.50890000      -1.25940000
H       -1.84880000      -0.70960000      -2.10470000
