20
Properties=species:S:1:pos:R:3 gdb_39385=T pbc="F F F"
C       -0.03850000       1.50610000      -0.13170000
C        1.49600000       1.33370000      -0.02600000
C        1.22240000       0.07110000       0.86930000
C       -0.04370000      -0.01530000       0.00460000
N       -1.14230000      -0.90090000      -0.33950000
C        0.06060000      -0.83460000      -1.21510000
C        0.12020000      -0.08120000      -2.52130000
C        1.34220000       0.91730000      -2.46730000
O        2.09990000       0.92620000      -1.25600000
H       -0.43210000       1.99530000       0.76420000
H       -0.46450000       1.98210000      -1.01420000
H        2.09290000       2.14360000       0.40290000
H        1.94820000      -0.74240000       0.81050000
H        1.04500000       0.35950000       1.91080000
H       -1.12980000      -1.76560000       0.19660000
H        0.74380000      -1.67860000      -1.14210000
H        0.23050000      -0.75490000      -3.37690000
H       -0.81250000       0.47020000      -2.66910000
H        2.08070000       0.63710000      -3.22260000
H        1.00170000       1.93210000      -2.71400000
