16
Properties=species:S:1:pos:R:3 gdb_20917=T pbc="F F F"
C       -0.03780000       1.51890000      -0.13920000
C       -0.03380000       0.01220000       0.11290000
N       -1.37360000      -0.55750000       0.06140000
N       -2.01080000      -0.99350000       1.13880000
N       -3.18440000      -1.40460000       0.72780000
C       -3.21700000      -1.19560000      -0.61270000
C       -4.38220000      -1.52640000      -1.48010000
N       -2.08230000      -0.66040000      -1.05780000
H        0.98630000       1.90080000      -0.10060000
H       -0.45570000       1.74290000      -1.12340000
H       -0.63000000       2.03780000       0.61940000
H        0.57350000      -0.50830000      -0.63250000
H        0.34850000      -0.22950000       1.10610000
H       -5.21550000      -0.84300000      -1.28890000
H       -4.10340000      -1.44930000      -2.53220000
H       -4.73520000      -2.54050000      -1.27520000
