16
Properties=species:S:1:pos:R:3 gdb_64621=T pbc="F F F"
N        0.10760000       1.47900000      -0.02190000
C        0.04300000       0.01290000      -0.01320000
C        0.64470000      -0.53050000       1.28840000
C       -0.20710000      -1.29930000       1.96410000
C       -1.51720000      -1.39990000       1.25290000
N       -2.18210000      -0.06670000       1.12360000
C       -1.38110000      -0.60630000       0.01160000
C        0.78410000      -0.49990000      -1.17860000
N        1.33490000      -0.92280000      -2.10230000
H       -0.20870000       1.83120000      -0.92180000
H       -0.56050000       1.80040000       0.67630000
H        1.63680000      -0.22420000       1.59330000
H       -0.01320000      -1.76010000       2.92480000
H       -2.13430000      -2.28860000       1.31810000
H       -3.16870000      -0.20170000       0.90840000
H       -1.86000000      -0.87570000      -0.92250000
