16
Properties=species:S:1:pos:R:3 gdb_15880=T pbc="F F F"
O        0.32720000       0.92610000      -0.86600000
C        0.07090000      -0.16570000      -0.01550000
C        0.06990000       0.06000000       1.52140000
C       -1.24810000      -0.76000000       1.58100000
O       -2.32440000      -0.26870000       2.34350000
C       -1.43600000      -0.55550000       0.04820000
C       -2.35770000       0.60200000      -0.28260000
O       -3.26640000       0.51390000      -1.06680000
H        1.26940000       1.12100000      -0.84270000
H        0.67830000      -1.03770000      -0.29200000
H        0.92830000      -0.28900000       2.10070000
H       -0.12900000       1.11120000       1.74840000
H       -1.05230000      -1.81740000       1.80300000
H       -2.13350000      -0.41290000       3.27570000
H       -1.75370000      -1.41960000      -0.53600000
H       -2.14620000       1.55240000       0.24650000
