19
Properties=species:S:1:pos:R:3 gdb_116350=T pbc="F F F"
O        0.01210000       1.43630000      -0.03360000
C        0.05070000       0.02510000       0.01240000
C       -1.35350000      -0.56980000       0.03330000
O       -2.00050000      -0.09060000      -1.15210000
C       -3.26700000      -0.67260000      -1.31440000
O       -3.18230000      -2.02910000      -1.66650000
C       -2.41870000      -2.78950000      -0.76550000
C       -0.95340000      -2.94440000      -1.06680000
C       -1.39920000      -2.08380000       0.09810000
H       -0.57840000       1.66120000      -0.76210000
H        0.60510000      -0.39680000      -0.83970000
H        0.57940000      -0.25490000       0.92950000
H       -1.89070000      -0.16120000       0.90540000
H       -3.85330000      -0.54720000      -0.38670000
H       -3.75860000      -0.16610000      -2.14710000
H       -2.97240000      -3.63060000      -0.35770000
H       -0.46710000      -3.88870000      -0.84990000
H       -0.60930000      -2.44110000      -1.96330000
H       -1.24450000      -2.48900000       1.09340000
