14
Properties=species:S:1:pos:R:3 gdb_129456=T pbc="F F F"
N       -0.10630000       1.32190000       0.02150000
C        0.05080000      -0.02580000       0.01020000
O        1.12640000      -0.59530000       0.01410000
C       -1.23310000      -0.79630000      -0.00720000
N       -2.39470000      -0.18210000       0.00360000
O       -3.34640000      -1.21170000      -0.01710000
C       -2.70780000      -2.39530000      -0.03920000
N       -3.50930000      -3.50350000      -0.12280000
C       -1.35340000      -2.20580000      -0.03260000
H        0.71290000       1.90510000       0.03210000
H       -1.02550000       1.73210000       0.01500000
H       -4.45190000      -3.36880000       0.21390000
H       -3.08870000      -4.35990000       0.20360000
H       -0.55970000      -2.93080000      -0.04740000
