16
Properties=species:S:1:pos:R:3 gdb_90584=T pbc="F F F"
C       -0.35650000       1.49140000      -0.10060000
C        0.06450000       0.06720000       0.20610000
O        1.14120000      -0.38630000      -0.69760000
C        2.14190000      -0.27620000       0.35800000
C        1.02290000      -0.18940000       1.35540000
C        1.15480000      -1.19170000       2.23820000
N        2.39320000      -1.82400000       2.06180000
C        2.99370000      -1.47880000       0.84480000
O        4.01680000      -1.93940000       0.40840000
H        0.49020000       2.17890000      -0.02390000
H       -0.76620000       1.55240000      -1.11320000
H       -1.12990000       1.81490000       0.60410000
H       -0.79190000      -0.61440000       0.15220000
H        2.81020000       0.57300000       0.17540000
H        0.42180000      -1.63010000       2.90300000
H        2.77940000      -2.53660000       2.66040000
