21
Properties=species:S:1:pos:R:3 gdb_116957=T pbc="F F F"
C       -0.01830000       1.54870000       0.15840000
C        0.00360000       0.02400000       0.03470000
C       -1.41440000      -0.58160000      -0.00840000
C       -1.41700000      -2.03610000      -0.12060000
C       -1.38550000      -3.23700000      -0.20510000
C       -1.39140000      -4.69300000      -0.31260000
C       -2.78810000      -5.28540000      -0.22830000
C       -3.01650000      -6.63740000       0.29300000
O       -3.32410000      -5.48230000       1.07710000
H        0.99610000       1.95770000       0.18670000
H       -0.53940000       2.00900000      -0.68860000
H       -0.53080000       1.86580000       1.07350000
H        0.54320000      -0.27350000      -0.87140000
H        0.54990000      -0.41530000       0.87690000
H       -1.96240000      -0.28250000       0.89550000
H       -1.96720000      -0.14540000      -0.85170000
H       -0.94000000      -4.99950000      -1.26670000
H       -0.78010000      -5.13770000       0.48220000
H       -3.50120000      -4.88030000      -0.94690000
H       -3.87300000      -7.21570000      -0.05030000
H       -2.17020000      -7.22740000       0.64390000
