14
Properties=species:S:1:pos:R:3 gdb_12474=T pbc="F F F"
O       -0.05530000       0.48560000       1.21040000
C       -0.09300000       1.13060000       0.19470000
O       -1.30670000       1.50150000      -0.29490000
C       -1.42610000       2.16610000      -1.54290000
O       -0.84840000       3.43160000      -1.53750000
C        0.48410000       3.46960000      -2.00360000
C        1.41510000       2.46890000      -1.39790000
C        1.16230000       1.50100000      -0.51240000
H       -1.01250000       1.53910000      -2.34530000
H       -2.50130000       2.29280000      -1.67670000
H        0.51430000       3.35350000      -3.10180000
H        0.84810000       4.48260000      -1.79280000
H        2.44070000       2.57060000      -1.75050000
H        1.98750000       0.89030000      -0.16120000
