21
Properties=species:S:1:pos:R:3 gdb_39259=T pbc="F F F"
C       -0.02780000       1.47380000       0.04500000
C        1.32130000       0.78510000       0.01250000
C        2.26270000       0.42550000       1.14900000
C        2.39530000      -1.12720000       1.17190000
C        1.04020000      -1.83970000       0.89360000
C       -0.10650000      -0.89300000       1.25230000
C        0.03790000      -0.02140000       0.00830000
C       -0.01540000      -1.06660000      -1.07660000
O        0.83480000      -2.09600000      -0.52160000
H       -0.38340000       1.92190000       0.96860000
H       -0.31610000       2.02350000      -0.84550000
H        1.80880000       0.83370000      -0.95860000
H        3.24480000       0.89070000       1.02090000
H        1.88130000       0.78650000       2.10960000
H        3.10370000      -1.45620000       0.40470000
H        2.79290000      -1.45740000       2.13900000
H        1.01050000      -2.81430000       1.38810000
H       -1.07290000      -1.40710000       1.27230000
H        0.02710000      -0.37180000       2.20070000
H       -1.02090000      -1.47580000      -1.25430000
H        0.40230000      -0.73500000      -2.03300000
