19
Properties=species:S:1:pos:R:3 gdb_79994=T pbc="F F F"
C       -0.11980000       1.53050000       0.02900000
C        0.07540000       0.02120000       0.02140000
C        1.14400000      -0.59900000      -0.95360000
C        2.42730000      -0.05930000      -0.29390000
C        2.22430000      -0.07180000       1.02150000
C        0.79770000      -0.61510000       1.25580000
O        0.18610000      -0.32570000       2.48540000
C        0.79180000      -2.08670000       0.78300000
C        0.99310000      -2.07480000      -0.53330000
H        0.82300000       2.07100000       0.13610000
H       -0.60150000       1.85710000      -0.89920000
H       -0.77230000       1.81380000       0.86080000
H       -0.89230000      -0.46810000      -0.12360000
H        1.03010000      -0.39250000      -2.01770000
H        3.32310000       0.22100000      -0.83200000
H        2.90630000       0.19760000       1.81820000
H        0.73410000      -0.68000000       3.19250000
H        0.66530000      -2.93030000       1.44940000
H        1.07870000      -2.91540000      -1.20890000
