16
Properties=species:S:1:pos:R:3 gdb_93549=T pbc="F F F"
C        0.04300000       1.57830000       0.03740000
C       -0.15070000       0.05980000      -0.05500000
C        0.72880000      -0.53250000      -1.15010000
O        0.37480000      -1.89050000      -1.45580000
C        0.71820000      -2.89740000      -0.65030000
O        0.67390000      -4.03620000      -0.99000000
O        1.17540000      -2.57510000       0.61360000
C        0.66310000      -1.60750000       1.46650000
N        0.08520000      -0.51580000       1.25990000
H        1.08630000       1.82440000       0.26110000
H       -0.23680000       2.06800000      -0.90000000
H       -0.57550000       1.97840000       0.84310000
H       -1.19700000      -0.14320000      -0.32040000
H        0.58070000      -0.00090000      -2.09190000
H        1.78830000      -0.47310000      -0.87770000
H        0.86140000      -1.94420000       2.48160000
