21
Properties=species:S:1:pos:R:3 gdb_74033=T pbc="F F F"
C        0.08850000       1.47110000      -0.15450000
C       -0.03760000       0.01430000       0.18130000
C       -1.17220000      -0.67880000       0.18840000
C       -2.55700000      -0.58920000      -0.42560000
C       -2.36120000      -2.09380000      -0.82480000
C       -1.25550000      -2.17670000       0.28420000
O       -0.06540000      -2.91670000       0.13910000
C        1.05810000      -2.16780000      -0.30900000
C        1.21140000      -0.81810000       0.41690000
H        0.74170000       1.62540000      -1.02370000
H       -0.88360000       1.92250000      -0.37080000
H        0.54020000       2.02990000       0.67560000
H       -3.35970000      -0.46490000       0.30920000
H       -2.70700000       0.13230000      -1.23210000
H       -3.21760000      -2.76540000      -0.73150000
H       -1.92570000      -2.18300000      -1.82260000
H       -1.71800000      -2.51440000       1.22180000
H        1.92310000      -2.81360000      -0.13010000
H        0.99520000      -1.97950000      -1.39250000
H        2.09620000      -0.30370000       0.02300000
H        1.39670000      -0.99400000       1.48450000
