17
Properties=species:S:1:pos:R:3 gdb_84176=T pbc="F F F"
C       -0.27660000       1.48360000      -0.02400000
C        0.00430000      -0.00880000       0.15540000
N        0.60330000      -0.60170000      -1.05810000
C        1.63560000      -1.26260000      -0.69640000
C        2.48260000      -1.95630000      -1.70950000
O        3.50630000      -2.53460000      -1.45120000
N        1.96570000      -1.33050000       0.68930000
C        2.39920000       0.00640000       1.17880000
C        0.97550000      -0.39720000       1.27910000
H        0.64850000       2.04150000      -0.19470000
H       -0.93540000       1.64410000      -0.88100000
H       -0.76240000       1.88920000       0.86860000
H       -0.95400000      -0.51950000       0.32210000
H        2.07670000      -1.86930000      -2.73710000
H        3.03090000      -0.02310000       2.06030000
H        2.68800000       0.73690000       0.42820000
H        0.57460000      -0.68210000       2.24600000
