20
Properties=species:S:1:pos:R:3 gdb_22049=T pbc="F F F"
C        0.13120000       1.52600000       0.07740000
C        0.03460000       0.02950000      -0.01820000
N       -0.04000000      -0.74170000       0.99640000
O       -0.01100000      -0.05220000       2.21160000
C       -0.01110000      -0.67670000      -1.36510000
C        1.21080000      -0.33130000      -2.22730000
O       -0.02900000      -2.09130000      -1.19550000
C       -1.33140000      -0.31740000      -2.10080000
O       -1.48450000      -1.12100000      -3.24760000
H        1.11460000       1.81740000       0.46290000
H       -0.01610000       2.00880000      -0.88890000
H       -0.60890000       1.90350000       0.78820000
H       -0.08490000      -0.76280000       2.85780000
H        2.12110000      -0.70550000      -1.75260000
H        1.09560000      -0.80930000      -3.20250000
H        1.30740000       0.74670000      -2.38400000
H       -0.16590000      -2.24850000      -0.24870000
H       -2.16740000      -0.45470000      -1.39590000
H       -1.33340000       0.72530000      -2.43420000
H       -1.31400000      -2.02230000      -2.94120000
