14
Properties=species:S:1:pos:R:3 gdb_127198=T pbc="F F F"
C        0.06490000       1.41130000       0.01820000
N        0.03480000      -0.03600000       0.02320000
C        0.05700000      -0.80590000      -1.12730000
N        0.10530000      -0.36180000      -2.31010000
O        0.01580000      -2.10860000      -0.69370000
N       -0.03180000      -2.15250000       0.71980000
C       -0.01820000      -0.90460000       1.08630000
C       -0.05440000      -0.49000000       2.43830000
C       -0.08430000      -0.11200000       3.57870000
H        0.97570000       1.76430000      -0.47290000
H       -0.79580000       1.80090000      -0.53200000
H        0.03790000       1.76630000       1.04860000
H        0.11210000      -1.11900000      -2.98840000
H       -0.11120000       0.20650000       4.59250000
