16
Properties=species:S:1:pos:R:3 gdb_96904=T pbc="F F F"
C       -0.01940000       1.37880000       0.07660000
N       -0.08280000      -0.06060000      -0.09760000
C        0.54390000      -0.58640000      -1.04050000
C        1.41580000      -0.16960000      -2.23330000
C        1.51280000      -1.67440000      -2.51510000
C        1.96660000      -2.42020000      -1.31880000
N        0.54440000      -2.00970000      -1.36320000
C        1.38950000      -2.26590000      -3.81130000
N        1.32110000      -2.71850000      -4.87350000
H        0.60870000       1.90130000      -0.65920000
H       -1.03370000       1.78840000       0.02330000
H        0.36000000       1.59980000       1.07990000
H        0.84870000       0.37090000      -2.99440000
H        2.35490000       0.35450000      -2.03990000
H        2.09500000      -3.49270000      -1.41620000
H        2.63520000      -1.93160000      -0.61420000
