17
Properties=species:S:1:pos:R:3 gdb_109191=T pbc="F F F"
C        0.00710000       1.39660000       0.09620000
N       -0.05190000      -0.05800000       0.08150000
C       -1.26930000      -0.66920000      -0.02390000
N       -2.40620000      -0.08600000       0.05460000
C       -3.42740000      -1.11900000      -0.05060000
C       -2.65880000      -2.49360000       0.00950000
N       -1.27440000      -2.06440000      -0.24480000
C       -2.79730000      -3.16670000       1.30810000
N       -2.89040000      -3.70390000       2.32770000
H        1.02670000       1.70550000       0.33700000
H       -0.29220000       1.84430000      -0.86010000
H       -0.67020000       1.76880000       0.86650000
H        0.69670000      -0.52330000      -0.40890000
H       -4.17020000      -1.03990000       0.74830000
H       -3.96070000      -1.03890000      -1.00590000
H       -3.00330000      -3.18390000      -0.76580000
H       -0.56640000      -2.58450000       0.25900000
