19
Properties=species:S:1:pos:R:3 gdb_98980=T pbc="F F F"
C        0.03460000       1.34490000      -0.56120000
C       -0.39610000       0.29680000       0.46120000
C       -1.52920000      -0.58950000      -0.05020000
O       -2.04440000      -0.44520000      -1.14130000
N       -1.91020000      -1.56530000       0.84750000
C       -2.91620000      -2.53340000       0.73810000
N       -3.08990000      -3.29460000       1.74170000
C       -3.71770000      -2.60530000      -0.55920000
O       -4.62880000      -3.68700000      -0.53020000
H        0.83960000       1.96450000      -0.15680000
H        0.38850000       0.87140000      -1.48020000
H       -0.80250000       1.99290000      -0.83060000
H        0.44730000      -0.34740000       0.74240000
H       -0.72940000       0.77340000       1.39270000
H       -1.44040000      -1.60030000       1.74240000
H       -3.86440000      -3.92690000       1.53450000
H       -4.30130000      -1.68870000      -0.67940000
H       -3.04100000      -2.64620000      -1.41840000
H       -4.14570000      -4.49030000      -0.74840000
