17
Properties=species:S:1:pos:R:3 gdb_94496=T pbc="F F F"
O        0.41860000       0.95470000      -0.73760000
C        0.07600000      -0.13480000       0.05730000
C       -0.19890000       0.03720000       1.57400000
C       -1.30420000      -1.04360000       1.45720000
C       -1.35330000      -0.80120000      -0.09160000
C       -2.35810000       0.14970000      -0.50770000
C       -3.16690000       0.98260000      -0.85880000
C       -4.08650000       1.90720000      -1.24690000
C       -4.90100000       2.72970000      -1.59150000
H       -0.32930000       1.56540000      -0.74210000
H        0.84020000      -0.89780000      -0.11600000
H        0.62950000      -0.13680000       2.26340000
H       -0.62850000       1.02320000       1.77590000
H       -0.93290000      -2.04750000       1.67540000
H       -2.23350000      -0.87930000       2.00230000
H       -1.39410000      -1.69450000      -0.72200000
H       -5.61890000       3.45060000      -1.89480000
