20
Properties=species:S:1:pos:R:3 gdb_82833=T pbc="F F F"
C        0.05320000       1.54450000       0.12450000
C       -0.00910000       0.05760000      -0.02670000
C        0.62160000      -0.82430000      -1.16020000
C        1.42160000      -1.51850000      -0.04390000
N        0.62120000      -0.85660000       1.04030000
C       -0.70320000      -1.55200000       1.17760000
C       -1.28420000      -0.85480000      -0.06420000
C       -0.77430000      -1.46470000      -1.38780000
O       -1.48050000      -0.83340000      -2.44040000
H        1.09180000       1.89150000       0.16160000
H       -0.44520000       2.03560000      -0.71810000
H       -0.44000000       1.86400000       1.04910000
H        1.14120000      -0.44770000      -2.04500000
H        1.41700000      -2.61470000      -0.01350000
H        2.46030000      -1.17680000       0.00470000
H       -0.64950000      -2.64710000       1.17670000
H       -1.19080000      -1.23130000       2.10330000
H       -2.31800000      -0.50810000      -0.06830000
H       -0.80920000      -2.56130000      -1.48140000
H       -0.99420000      -0.98850000      -3.25740000
