14
Properties=species:S:1:pos:R:3 gdb_127804=T pbc="F F F"
C        0.11420000       1.35830000       0.18260000
N        0.09550000      -0.08820000       0.09060000
N        0.24660000      -0.71980000      -1.09710000
N        0.17750000      -2.00120000      -0.87750000
C       -0.03220000      -2.22490000       0.44840000
C       -0.08320000      -1.00090000       1.07170000
O       -0.29260000      -0.58960000       2.35040000
C        0.41250000      -1.22390000       3.34910000
O        0.21890000      -0.97790000       4.49300000
H        0.27910000       1.73670000      -0.82560000
H       -0.83780000       1.73070000       0.56840000
H        0.92170000       1.69120000       0.83960000
H       -0.14700000      -3.21440000       0.85860000
H        1.14040000      -1.94560000       2.94240000
