16
Properties=species:S:1:pos:R:3 gdb_55992=T pbc="F F F"
N        0.12080000       1.33850000      -0.00790000
C       -0.12750000       0.03040000       0.36700000
O        0.29130000      -0.46440000       1.39720000
N       -0.88710000      -0.68930000      -0.53700000
C       -0.96790000      -2.11700000      -0.36130000
C       -2.06150000      -2.69400000       0.56430000
O       -2.64650000      -3.40650000      -0.58190000
C       -1.75750000      -2.82040000      -1.44760000
N       -1.67860000      -2.82330000      -2.69880000
H        0.46810000       1.90930000       0.74710000
H       -0.54190000       1.79840000      -0.61300000
H       -0.93120000      -0.37800000      -1.49680000
H        0.01340000      -2.56100000      -0.16710000
H       -1.73430000      -3.39190000       1.33560000
H       -2.76120000      -1.95730000       0.96230000
H       -2.42010000      -3.38080000      -3.12580000
