24
Properties=species:S:1:pos:R:3 gdb_122533=T pbc="F F F"
C       -0.20580000       1.52200000      -0.47810000
C       -0.04640000       0.07260000      -0.05070000
O       -1.32750000      -0.51450000       0.03530000
C       -1.29430000      -1.87080000       0.42870000
C       -2.71310000      -2.37280000       0.48150000
N       -3.25430000      -3.00540000      -0.73310000
C       -3.09540000      -3.81050000       0.49050000
C       -2.12630000      -4.97210000       0.43190000
C       -2.74960000      -6.20070000      -0.24020000
H        0.77140000       2.00850000      -0.55310000
H       -0.69990000       1.58130000      -1.45200000
H       -0.81290000       2.07110000       0.24740000
H        0.57740000      -0.47780000      -0.77570000
H        0.46780000       0.01060000       0.92440000
H       -0.70540000      -2.46680000      -0.28400000
H       -0.81950000      -1.96800000       1.42160000
H       -3.37050000      -1.69810000       1.02830000
H       -4.22460000      -2.73940000      -0.87360000
H       -4.00680000      -4.03680000       1.04630000
H       -1.22860000      -4.67290000      -0.11740000
H       -1.80770000      -5.22430000       1.45190000
H       -2.04200000      -7.03430000      -0.28060000
H       -3.63740000      -6.54330000       0.30350000
H       -3.05410000      -5.96150000      -1.26370000
