23
Properties=species:S:1:pos:R:3 gdb_79289=T pbc="F F F"
C       -0.07150000       1.62680000      -0.03570000
C        0.02750000       0.10020000      -0.03400000
C        0.91750000      -0.49420000      -1.12530000
C        2.31500000      -0.62630000      -0.54350000
C        2.24970000      -0.13970000       0.90170000
C        0.77860000      -0.54720000       1.16380000
C        0.82090000      -2.05330000       0.76840000
C       -0.49620000      -2.82830000       0.81370000
C        1.40950000      -1.84020000      -0.62840000
H        0.91050000       2.10790000      -0.03420000
H       -0.60140000       1.97520000      -0.92910000
H       -0.62680000       1.98760000       0.83730000
H       -0.99020000      -0.30080000      -0.09880000
H        0.75700000      -0.29700000      -2.17780000
H        3.20080000      -0.52970000      -1.15760000
H        2.94460000      -0.67270000       1.55980000
H        2.43600000       0.93220000       1.01140000
H        0.38240000      -0.32490000       2.15550000
H        1.54480000      -2.57130000       1.41170000
H       -1.25290000      -2.40500000       0.14730000
H       -0.33810000      -3.86720000       0.50380000
H       -0.91010000      -2.84690000       1.82810000
H        1.61340000      -2.66170000      -1.30400000
