23
Properties=species:S:1:pos:R:3 gdb_116185=T pbc="F F F"
C        0.44480000       1.44000000      -0.48000000
C        0.00730000       0.05190000       0.00730000
O       -1.36450000       0.08780000       0.40020000
C        0.29880000      -1.03740000      -1.04920000
C        1.78120000      -1.42290000      -0.84420000
C        2.12460000      -1.01180000       0.61910000
C        0.81510000      -0.46440000       1.22120000
C        0.99450000       0.52740000       2.36670000
O        1.64010000      -0.05450000       3.49350000
H        1.51010000       1.46940000      -0.72940000
H       -0.10830000       1.71000000      -1.38790000
H        0.24550000       2.20390000       0.27600000
H       -1.87260000       0.46750000      -0.32430000
H       -0.35810000      -1.88580000      -0.83040000
H        0.07860000      -0.70610000      -2.06980000
H        1.94230000      -2.48960000      -1.02060000
H        2.42440000      -0.89310000      -1.55310000
H        2.52010000      -1.84180000       1.20800000
H        2.89700000      -0.23480000       0.63310000
H        0.22120000      -1.30560000       1.60880000
H        1.64540000       1.35390000       2.06130000
H        0.01830000       0.95500000       2.64000000
H        1.06610000      -0.75130000       3.82780000
