18
Properties=species:S:1:pos:R:3 gdb_114983=T pbc="F F F"
O       -0.15420000       1.49230000      -0.06400000
C        0.01490000       0.08110000      -0.11650000
C       -1.38190000      -0.53300000       0.03080000
C       -1.36810000      -2.06410000      -0.03840000
C       -0.86290000      -2.74710000       1.24260000
O       -0.31680000      -3.83610000       1.19510000
C       -1.16490000      -2.02980000       2.46920000
C       -1.71200000      -0.78750000       2.43020000
N       -1.99860000      -0.10150000       1.28720000
H        0.71330000       1.90410000      -0.02340000
H        0.44890000      -0.23760000      -1.07610000
H        0.67020000      -0.27620000       0.69070000
H       -1.99300000      -0.13340000      -0.78620000
H       -2.39290000      -2.42250000      -0.19920000
H       -0.76990000      -2.41200000      -0.88420000
H       -0.97420000      -2.51770000       3.41620000
H       -1.97490000      -0.26560000       3.34660000
H       -2.07870000       0.90040000       1.37670000
