20
Properties=species:S:1:pos:R:3 gdb_58212=T pbc="F F F"
C        0.00400000       1.53330000       0.42620000
C       -0.01000000       0.01340000       0.30420000
O        0.46170000      -0.62170000       1.49070000
C       -1.40930000      -0.52600000      -0.06260000
O       -1.93120000       0.08270000      -1.22840000
C       -1.42900000      -2.07750000      -0.16590000
C       -2.86410000      -2.63290000      -0.20230000
C       -0.68850000      -2.47360000      -1.36820000
N       -0.12010000      -2.72560000      -2.34380000
H        1.01370000       1.88580000       0.65200000
H       -0.34270000       2.00050000      -0.49770000
H       -0.66550000       1.86120000       1.23260000
H        0.69320000      -0.29670000      -0.48030000
H        0.04730000      -0.18440000       2.24290000
H       -2.10350000      -0.25170000       0.74290000
H       -1.38750000      -0.19210000      -1.97850000
H       -0.88990000      -2.46770000       0.70320000
H       -2.86610000      -3.71600000      -0.34470000
H       -3.36790000      -2.40790000       0.74200000
H       -3.42800000      -2.16960000      -1.01500000
