21
Properties=species:S:1:pos:R:3 gdb_15268=T pbc="F F F"
C       -1.04720000       2.12410000      -0.80250000
C       -0.94760000       0.81670000      -1.58730000
N       -1.67030000      -0.24160000      -0.88920000
C       -1.40910000      -1.65310000      -1.16590000
C       -0.40620000      -2.14190000      -2.19360000
C       -1.02550000      -1.04970000       0.15020000
C        0.41050000      -0.88880000       0.58360000
O        0.44820000       0.13350000       1.57590000
H       -0.55520000       2.93780000      -1.34510000
H       -2.09500000       2.39390000      -0.64270000
H       -0.56770000       2.01300000       0.17380000
H       -1.42120000       0.92900000      -2.57040000
H        0.11230000       0.58830000      -1.78050000
H       -2.32280000      -2.24910000      -1.17130000
H        0.53210000      -1.58480000      -2.19030000
H       -0.16910000      -3.19580000      -2.01190000
H       -0.83000000      -2.07220000      -3.20160000
H       -1.67470000      -1.23910000       1.00530000
H        0.75780000      -1.84850000       0.99960000
H        1.06910000      -0.64240000      -0.25870000
H        1.35540000       0.21780000       1.88460000
