13
Properties=species:S:1:pos:R:3 gdb_129194=T pbc="F F F"
N        0.08170000       1.32110000      -0.09350000
C        0.01800000       0.06440000      -0.02090000
N       -1.08720000      -0.74150000       0.06050000
N       -0.77150000      -2.09670000       0.01220000
C        0.50880000      -2.08470000       0.01420000
N        1.40700000      -3.12830000       0.02020000
C        1.11090000      -4.48250000       0.02570000
O        0.00770000      -4.95560000       0.02060000
O        1.08670000      -0.84710000       0.01690000
H        1.04110000       1.65160000      -0.12490000
H       -2.01990000      -0.45090000      -0.17320000
H        2.37790000      -2.85360000       0.02070000
H        2.04470000      -5.07600000       0.03540000
