16
Properties=species:S:1:pos:R:3 gdb_32253=T pbc="F F F"
C        0.11760000       1.33380000      -0.01470000
O       -0.01020000      -0.07870000      -0.04000000
C       -1.26210000      -0.61210000      -0.00960000
C       -2.46150000       0.08530000       0.04330000
C       -3.64910000      -0.64990000       0.06750000
N       -3.70180000      -1.97900000       0.04270000
C       -2.54000000      -2.64100000      -0.00840000
C       -1.30060000      -2.01650000      -0.03630000
O       -0.15770000      -2.74630000      -0.08780000
H        1.18740000       1.54440000      -0.04450000
H       -0.36820000       1.79200000      -0.88450000
H       -0.31130000       1.75490000       0.90240000
H       -2.49050000       1.16710000       0.06560000
H       -4.60110000      -0.12680000       0.10890000
H       -2.57920000      -3.72700000      -0.02860000
H        0.58070000      -2.12360000      -0.10000000
