19
Properties=species:S:1:pos:R:3 gdb_34853=T pbc="F F F"
C       -0.03410000      -1.17550000      -0.07800000
C       -0.02990000       0.02680000      -0.02450000
C       -0.00460000       1.47160000       0.04380000
C       -0.12680000       2.07190000       1.49260000
C        1.41830000       1.92300000       1.60830000
C        1.43410000       2.11110000       0.06880000
O        1.34250000       3.46730000      -0.32500000
C        0.65390000       4.29370000       0.61490000
C       -0.49010000       3.55780000       1.34690000
H       -0.04670000      -2.23570000      -0.13240000
H       -0.66550000       1.91300000      -0.70880000
H       -0.76550000       1.54520000       2.20300000
H        1.97840000       2.62750000       2.22680000
H        1.70280000       0.90230000       1.86810000
H        2.21830000       1.65080000      -0.53340000
H        1.37290000       4.67240000       1.35450000
H        0.28600000       5.15560000       0.05200000
H       -1.43660000       3.65120000       0.80220000
H       -0.63560000       4.02150000       2.32920000
