20
Properties=species:S:1:pos:R:3 gdb_57576=T pbc="F F F"
C       -0.12410000       1.51620000       0.15650000
C        0.02280000       0.00250000      -0.01900000
O        0.76010000      -0.48780000       1.09220000
C       -1.36250000      -0.65180000      -0.07930000
C       -1.56790000      -2.06430000       0.31470000
N       -2.06530000      -0.96720000       1.16800000
C        0.78410000      -0.31860000      -1.30520000
C        2.24590000      -0.24460000      -1.37510000
O        1.57500000      -1.51250000      -1.25030000
H        0.85830000       1.98890000       0.23270000
H       -0.66250000       1.95640000      -0.68860000
H       -0.68790000       1.73280000       1.06780000
H        1.19910000      -1.29360000       0.78020000
H       -2.00570000      -0.23480000      -0.85330000
H       -2.33680000      -2.65650000      -0.17290000
H       -0.71000000      -2.63270000       0.66160000
H       -1.39900000      -0.84460000       1.93020000
H        0.21360000      -0.20180000      -2.22660000
H        2.73460000      -0.07780000      -2.33260000
H        2.80410000       0.06480000      -0.49500000
