21
Properties=species:S:1:pos:R:3 gdb_89533=T pbc="F F F"
C        0.01980000       1.63760000       0.05300000
C        0.03390000       0.11770000       0.00720000
C        1.04520000      -0.58720000      -0.94680000
C        1.33470000      -1.59910000       0.18440000
C        0.66460000      -0.65960000       1.20210000
C        0.99200000      -3.11090000       0.13080000
C        2.24980000      -3.36110000      -0.73300000
C        2.61500000      -2.42470000       0.44250000
O        1.82160000      -3.29930000       1.34570000
H        1.02440000       2.03290000       0.24400000
H       -0.33090000       2.06360000      -0.89380000
H       -0.63840000       2.00590000       0.84800000
H       -0.97700000      -0.25780000      -0.18620000
H        0.66280000      -0.97280000      -1.89580000
H        1.91230000       0.04970000      -1.15520000
H        1.39940000      -0.04760000       1.73690000
H       -0.00760000      -1.11120000       1.93420000
H        0.01920000      -3.60490000       0.10570000
H        2.66170000      -4.36840000      -0.66240000
H        2.27450000      -2.95670000      -1.74770000
H        3.59460000      -2.09660000       0.79450000
