10
Properties=species:S:1:pos:R:3 gdb_21772=T pbc="F F F"
O       -0.02640000      -0.02200000       0.16230000
C       -0.00640000       1.17550000       0.06850000
N       -1.14770000       1.95640000       0.01030000
C       -1.10560000       3.32460000      -0.09620000
N       -0.05300000       4.04690000      -0.15450000
O        1.17460000       3.35540000      -0.10320000
C        1.28720000       1.99050000       0.00230000
O        2.36770000       1.49060000       0.04020000
H       -2.03480000       1.47080000       0.05000000
H       -2.05370000       3.84880000      -0.13500000
