18
Properties=species:S:1:pos:R:3 gdb_105337=T pbc="F F F"
O        0.15600000       1.36800000      -0.05820000
C        0.04340000      -0.02700000       0.16050000
C       -1.40810000      -0.52620000       0.06390000
C       -2.07960000      -0.46470000      -1.37890000
C       -2.23710000      -1.98550000      -1.33230000
N       -0.86730000      -2.53810000      -1.20320000
C       -1.59070000      -2.06730000       0.00120000
C       -2.25610000       0.07030000       1.08260000
C       -2.95950000       0.53930000       1.93770000
H       -0.05580000       1.53950000      -0.98120000
H        0.65230000      -0.60550000      -0.54420000
H        0.42200000      -0.20540000       1.17190000
H       -3.02210000       0.08190000      -1.36420000
H       -1.44240000      -0.09490000      -2.18790000
H       -3.03810000      -2.57990000      -1.75270000
H       -0.94500000      -3.55470000      -1.21480000
H       -1.78150000      -2.72130000       0.84260000
H       -3.57250000       0.96810000       2.69120000
