16
Properties=species:S:1:pos:R:3 gdb_11664=T pbc="F F F"
O        0.01270000       1.39190000       0.04070000
C        0.00440000      -0.01890000      -0.11240000
C       -1.39940000      -0.55640000      -0.06100000
C       -2.59820000      -0.31170000      -1.05000000
C       -3.24640000      -1.17760000       0.08650000
C       -1.92960000      -2.03130000       0.03670000
C       -2.44850000      -0.26440000       1.02290000
O       -2.55170000       0.37050000       2.03030000
H       -0.39050000       1.58890000       0.89440000
H        0.47460000      -0.22720000      -1.07940000
H        0.61330000      -0.51650000       0.65970000
H       -2.94850000       0.71360000      -1.17470000
H       -2.49880000      -0.83200000      -2.00590000
H       -4.27120000      -1.53430000       0.15210000
H       -1.81110000      -2.61490000      -0.87960000
H       -1.66440000      -2.60860000       0.92470000
