14
Properties=species:S:1:pos:R:3 gdb_55576=T pbc="F F F"
N       -0.42100000       0.70620000      -1.19660000
C       -0.11950000      -0.03100000      -0.07020000
O        0.61780000       0.33630000       0.80560000
N       -0.84690000      -1.24950000      -0.04630000
C       -0.65940000      -2.28730000       0.84300000
O        0.20310000      -2.36920000       1.67490000
C       -1.69710000      -3.43920000       0.71810000
C       -2.59230000      -3.37030000      -0.42780000
N       -3.26820000      -3.24500000      -1.35790000
H        0.16150000       1.52070000      -1.31520000
H       -0.68550000       0.23660000      -2.04850000
H       -1.61090000      -1.34300000      -0.70070000
H       -1.13010000      -4.37380000       0.70070000
H       -2.28100000      -3.44070000       1.64460000
