21
Properties=species:S:1:pos:R:3 gdb_72718=T pbc="F F F"
C       -0.10840000       1.53900000      -0.14350000
C       -0.03700000       0.01950000      -0.01260000
C       -1.30120000      -0.49370000       0.79840000
C       -0.36170000      -0.45700000       2.08890000
C        0.79260000      -0.62690000       1.07890000
C        2.08780000      -0.23370000       0.32890000
C        1.12210000      -0.60530000      -0.91340000
C        0.95780000      -2.09030000      -0.66640000
O        0.72520000      -2.05710000       0.75040000
H        0.83060000       1.99470000      -0.46660000
H       -0.86300000       1.79150000      -0.89860000
H       -0.41790000       2.02520000       0.78820000
H       -2.15400000       0.18940000       0.79680000
H       -1.63680000      -1.50360000       0.57440000
H       -0.38310000       0.52130000       2.57200000
H       -0.48200000      -1.24410000       2.83490000
H        2.34640000       0.82200000       0.36970000
H        2.97480000      -0.85710000       0.46770000
H        1.33050000      -0.25800000      -1.92660000
H        0.09870000      -2.53070000      -1.18860000
H        1.85320000      -2.68110000      -0.89670000
