19
Properties=species:S:1:pos:R:3 gdb_69456=T pbc="F F F"
C        0.07160000       1.48010000      -0.15960000
C       -0.06680000       0.00070000       0.06780000
C       -1.32040000      -0.74350000      -0.36390000
C       -1.16920000      -2.15330000       0.25110000
C       -0.29010000      -1.96740000       1.52260000
C        0.56200000      -3.18460000       1.80620000
O        0.51750000      -3.83900000       2.81630000
C        0.54360000      -0.73630000       1.18520000
O        1.12570000      -0.78720000      -0.12660000
H        1.01600000       1.84710000       0.24950000
H        0.05360000       1.70890000      -1.23070000
H       -0.75250000       2.02500000       0.31280000
H       -2.19700000      -0.22420000       0.04210000
H       -1.43310000      -0.77470000      -1.45230000
H       -2.12680000      -2.62050000       0.48860000
H       -0.65020000      -2.80810000      -0.45430000
H       -0.89700000      -1.76390000       2.41130000
H        1.26020000      -3.44370000       0.97790000
H        1.15130000      -0.25810000       1.94990000
