17
Properties=species:S:1:pos:R:3 gdb_28210=T pbc="F F F"
C        0.12920000       1.45260000      -0.04210000
C       -0.08450000      -0.01540000      -0.02180000
C       -1.18370000      -0.81630000      -0.13910000
C       -0.71860000      -2.16990000      -0.00950000
C        0.61040000      -2.05240000       0.16210000
O        1.37050000      -3.15240000       0.27740000
C        0.37620000      -4.23360000       0.30590000
C       -1.03500000      -3.63840000      -0.05860000
O        1.06240000      -0.79850000       0.16830000
H        0.81430000       1.75660000      -0.84270000
H       -0.82730000       1.95490000      -0.20650000
H        0.54770000       1.82150000       0.90240000
H       -2.19170000      -0.46070000      -0.29020000
H        0.71700000      -4.99750000      -0.39490000
H        0.38540000      -4.64700000       1.31830000
H       -1.78700000      -3.97120000       0.66480000
H       -1.36880000      -3.97700000      -1.04750000
