18
Properties=species:S:1:pos:R:3 gdb_32511=T pbc="F F F"
C        0.06820000       1.54820000       0.11150000
C       -0.01380000       0.01850000      -0.03820000
C        0.70720000      -0.50600000      -1.24860000
C        0.12280000      -0.91280000      -2.42170000
N        1.12110000      -1.29530000      -3.29670000
C        2.33430000      -1.14510000      -2.71230000
C        2.12900000      -0.65400000      -1.43120000
C        3.19570000      -0.37710000      -0.47940000
O        4.38170000      -0.51910000      -0.70220000
H        1.10540000       1.88290000       0.21010000
H       -0.35820000       2.04750000      -0.76410000
H       -0.48040000       1.88310000       0.99760000
H        0.38310000      -0.45370000       0.86840000
H       -1.06680000      -0.28000000      -0.09750000
H       -0.91560000      -0.96800000      -2.70800000
H        0.96810000      -1.64360000      -4.22770000
H        3.25410000      -1.39360000      -3.21560000
H        2.85130000      -0.01430000       0.51500000
