21
Properties=species:S:1:pos:R:3 gdb_117798=T pbc="F F F"
C       -0.05300000       1.39640000      -0.07830000
O       -0.10290000      -0.01050000      -0.11420000
C        0.70800000      -0.55970000      -1.12180000
C        0.63120000      -2.10200000      -1.04240000
C        1.18100000      -2.60150000       0.30110000
O       -0.70820000      -2.58340000      -1.08510000
C       -1.49220000      -2.18740000      -2.19240000
C        1.42380000      -2.64580000      -2.16170000
C        2.06720000      -3.07990000      -3.08010000
H        0.96380000       1.76420000       0.13150000
H       -0.38820000       1.84140000      -1.02850000
H       -0.72080000       1.72590000       0.72110000
H        0.38760000      -0.21270000      -2.11650000
H        1.76110000      -0.25890000      -0.99940000
H        0.61640000      -2.13440000       1.10960000
H        1.06860000      -3.68570000       0.35950000
H        2.23920000      -2.34800000       0.40160000
H       -2.40990000      -2.77860000      -2.14450000
H       -1.76030000      -1.12370000      -2.14600000
H       -0.98860000      -2.39350000      -3.14660000
H        2.63640000      -3.47500000      -3.88530000
