15
Properties=species:S:1:pos:R:3 gdb_26876=T pbc="F F F"
C       -0.00260000       1.53160000       0.03010000
C       -0.06580000       0.03690000       0.01530000
C       -1.21770000      -0.69530000      -0.08710000
O       -2.42870000      -0.06110000      -0.18590000
C       -1.08370000      -2.10900000      -0.08470000
N        0.03280000      -2.77460000       0.00590000
C        1.22680000      -2.07380000       0.11170000
O        2.32640000      -2.57670000       0.20180000
N        1.09810000      -0.66640000       0.10960000
H        0.60410000       1.90360000      -0.80350000
H       -1.00420000       1.95240000      -0.05250000
H        0.45410000       1.89250000       0.95870000
H       -3.12430000      -0.72310000      -0.24930000
H       -1.99820000      -2.70640000      -0.16610000
H        1.97550000      -0.17010000       0.18720000
