19
Properties=species:S:1:pos:R:3 gdb_80073=T pbc="F F F"
C       -0.26310000       1.54240000      -0.17900000
C       -0.01960000       0.06280000       0.02260000
C        1.32850000      -0.61700000      -0.20040000
C        2.57980000       0.14170000      -0.39170000
C        3.20870000       0.81450000       0.58130000
C        2.70080000       0.84940000       1.97070000
O        1.48880000       1.59450000       2.23640000
C        1.42260000       0.17000000       2.27120000
C        0.69420000      -0.57470000       1.19160000
H        0.61250000       2.14270000       0.05900000
H       -0.54930000       1.72870000      -1.22040000
H       -1.08250000       1.88960000       0.45910000
H       -0.84490000      -0.55020000      -0.33340000
H        1.28630000      -1.55630000      -0.74530000
H        3.01730000       0.11730000      -1.38700000
H        4.14080000       1.33170000       0.37440000
H        3.44370000       0.95690000       2.75940000
H        1.28640000      -0.23720000       3.27260000
H        0.26770000      -1.50800000       1.54580000
