19
Properties=species:S:1:pos:R:3 gdb_75839=T pbc="F F F"
C        0.11250000       1.38760000       0.04470000
N       -0.16740000      -0.03010000       0.03860000
C       -0.07430000      -0.76740000      -1.13370000
O        0.04080000      -0.32930000      -2.25830000
N       -0.13600000      -2.11360000      -0.77080000
C        0.02470000      -2.26520000       0.64420000
C        1.24870000      -1.65960000       1.31870000
C       -0.04710000      -0.86850000       1.20370000
C       -0.85460000      -0.48220000       2.41630000
H        1.10730000       1.60400000       0.45910000
H        0.08010000       1.72830000      -0.99150000
H       -0.63300000       1.93910000       0.62710000
H        0.26250000      -2.76960000      -1.42390000
H       -0.50060000      -3.09100000       1.11130000
H        1.50590000      -2.04860000       2.29820000
H        2.09030000      -1.37250000       0.69730000
H       -0.48780000       0.44980000       2.86010000
H       -1.90860000      -0.34480000       2.15380000
H       -0.78800000      -1.25920000       3.18270000
