17
Properties=species:S:1:pos:R:3 gdb_31062=T pbc="F F F"
C        0.11520000       1.42320000       0.11920000
N       -0.29520000       0.06050000      -0.19030000
C        0.45310000      -0.62670000      -1.16050000
C        0.68610000      -1.97630000      -1.17610000
O        0.37570000      -2.94270000      -0.25890000
N        1.36580000      -2.29120000      -2.35530000
C        1.59260000      -1.13630000      -3.04070000
O        2.29190000      -1.22060000      -4.20360000
C        1.03710000      -0.08120000      -2.35890000
H        1.17460000       1.51980000       0.40870000
H       -0.05460000       2.06930000      -0.74830000
H       -0.50520000       1.80420000       0.93500000
H       -0.36800000      -0.50260000       0.64800000
H       -0.50470000      -3.29250000      -0.44680000
H        1.81110000      -3.17170000      -2.54720000
H        2.41000000      -0.32930000      -4.54510000
H        1.02520000       0.94880000      -2.67820000
