21
Properties=species:S:1:pos:R:3 gdb_117185=T pbc="F F F"
C       -0.88260000       0.93750000      -0.29850000
O        0.20860000       0.06590000      -0.12010000
C        0.21640000      -0.98030000      -1.04390000
C        1.40100000      -1.89650000      -0.77420000
O        2.16240000      -1.73150000       0.14500000
C        1.60890000      -3.05090000      -1.77010000
C        2.02670000      -4.33170000      -1.04580000
O        0.42710000      -3.19180000      -2.53850000
C        0.58890000      -3.89260000      -3.75200000
H       -0.87020000       1.41270000      -1.29250000
H       -1.84650000       0.41700000      -0.18080000
H       -0.80430000       1.71430000       0.46550000
H       -0.70390000      -1.58800000      -1.00000000
H        0.27910000      -0.62000000      -2.08610000
H        2.43490000      -2.72250000      -2.42800000
H        1.18600000      -4.72600000      -0.46710000
H        2.35890000      -5.09980000      -1.74850000
H        2.84570000      -4.10280000      -0.36130000
H        0.83810000      -4.95100000      -3.59470000
H       -0.36320000      -3.83490000      -4.28490000
H        1.37440000      -3.44000000      -4.37700000
