18
Properties=species:S:1:pos:R:3 gdb_133874=T pbc="F F F"
C       -0.77560000       1.77890000       0.39410000
N        0.66460000       1.56960000      -0.17930000
C       -0.00400000       0.43650000      -1.01830000
C        0.57730000      -0.93920000      -1.35370000
C        0.41160000      -1.61070000       0.03590000
C        1.47740000      -0.85970000       0.87820000
C        0.79230000       0.50680000       0.95600000
C       -0.58360000       0.22380000       0.37200000
O       -0.90020000      -1.14910000       0.54860000
H       -1.46130000       2.23070000      -0.32500000
H       -0.78240000       2.29060000       1.35820000
H       -0.63980000       0.85780000      -1.79710000
H        1.61070000      -0.97320000      -1.70630000
H       -0.06350000      -1.39660000      -2.11290000
H        0.42170000      -2.69840000       0.07060000
H        2.46730000      -0.89750000       0.41730000
H        1.55330000      -1.25390000       1.89560000
H        0.86360000       0.99050000       1.93030000
