15
Properties=species:S:1:pos:R:3 gdb_131188=T pbc="F F F"
O        0.19620000       1.35140000       0.06220000
C        0.06770000       0.00440000      -0.05440000
C       -0.21240000      -0.81700000      -1.12830000
C        0.15340000      -1.33250000      -2.50680000
C        1.46290000      -2.10090000      -2.37210000
C        0.18770000      -2.72350000      -1.87000000
N       -0.24890000      -2.09500000      -0.61550000
N        0.08610000      -2.18000000       0.68730000
C        0.17760000      -0.89750000       1.04870000
H        0.12640000       1.74900000      -0.81100000
H       -0.27540000      -1.05140000      -3.45830000
H        1.85970000      -2.53120000      -3.28820000
H        2.21200000      -1.76400000      -1.66310000
H       -0.22870000      -3.66210000      -2.20960000
H        0.30680000      -0.62600000       2.08720000
