21
Properties=species:S:1:pos:R:3 gdb_115070=T pbc="F F F"
O        0.02470000       1.39600000      -0.02220000
C        0.03860000      -0.02440000      -0.06850000
C       -1.40340000      -0.52250000       0.00290000
C       -2.24640000       0.02410000      -1.16990000
C       -3.58320000      -0.65850000      -1.30120000
C       -3.78910000      -1.91570000      -0.90380000
C       -2.71800000      -2.74780000      -0.30300000
C       -1.41970000      -2.95400000      -1.07370000
C       -1.44980000      -2.03770000       0.12010000
H        0.92930000       1.70960000      -0.10890000
H        0.50530000      -0.38970000      -0.99810000
H        0.61520000      -0.44110000       0.77350000
H       -1.83510000      -0.11890000       0.92950000
H       -2.37230000       1.10230000      -1.03920000
H       -1.67840000      -0.08560000      -2.10660000
H       -4.39130000      -0.09500000      -1.75940000
H       -4.76630000      -2.37550000      -1.02490000
H       -3.04960000      -3.58220000       0.30660000
H       -0.91250000      -3.90770000      -0.97270000
H       -1.36900000      -2.52450000      -2.06810000
H       -0.97250000      -2.42440000       1.01720000
