17
Properties=species:S:1:pos:R:3 gdb_79803=T pbc="F F F"
O        0.05220000       1.39930000      -0.49480000
C        0.15260000       0.04820000      -0.15350000
C       -1.16670000      -0.77210000      -0.04550000
C       -1.72600000      -1.52660000      -1.34650000
C       -1.32830000      -1.15160000      -2.78560000
C        0.07710000      -0.62300000      -2.51570000
C        0.47640000      -0.98110000      -1.27810000
C       -0.51600000      -1.98680000      -0.65520000
O       -0.26970000      -3.25680000      -0.18100000
H        0.85480000       1.85020000      -0.21710000
H        0.71660000      -0.07740000       0.78260000
H       -1.82840000      -0.73600000       0.81640000
H       -2.68040000      -2.00760000      -1.14130000
H       -1.43550000      -2.01970000      -3.45120000
H       -1.91640000      -0.33680000      -3.22490000
H        0.39470000       0.30930000      -2.97280000
H        0.48100000      -3.21680000       0.42200000
