22
Properties=species:S:1:pos:R:3 gdb_116645=T pbc="F F F"
C        0.15430000       1.23470000      -0.25910000
O       -0.08210000       0.01180000       0.42540000
C       -1.20230000      -0.65120000       0.05930000
N       -1.48440000      -1.74840000       0.60140000
C       -2.69560000      -2.49090000       0.24510000
C       -3.59910000      -2.51360000       1.49190000
C       -3.48310000      -1.96480000      -0.96640000
C       -2.19250000      -3.91910000      -0.04950000
O       -3.30670000      -4.75650000      -0.32540000
H        1.07390000       1.64780000       0.15720000
H        0.28970000       1.07560000      -1.33620000
H       -0.66200000       1.95080000      -0.10150000
H       -1.78760000      -0.13750000      -0.71390000
H       -3.99400000      -1.51340000       1.69580000
H       -4.43390000      -3.20200000       1.34240000
H       -3.02570000      -2.83550000       2.36550000
H       -2.84900000      -1.89570000      -1.85750000
H       -4.29870000      -2.65460000      -1.19200000
H       -3.91640000      -0.97810000      -0.77240000
H       -1.50090000      -3.88000000      -0.90570000
H       -1.62500000      -4.27040000       0.82300000
H       -2.98500000      -5.65440000      -0.44140000
