23
Properties=species:S:1:pos:R:3 gdb_94734=T pbc="F F F"
C        0.06490000       1.62720000      -0.12290000
C        0.16600000       0.11290000      -0.07480000
O        1.07240000      -0.33190000      -1.08700000
C        1.31270000      -1.70510000      -0.81590000
C        1.42450000      -1.83260000       0.71350000
C        0.97980000      -3.18450000       1.24820000
C        2.76140000      -1.27230000       1.29070000
C        2.02790000      -0.00040000       1.79330000
C        0.68630000      -0.53560000       1.21780000
H        1.03330000       2.09780000       0.06470000
H       -0.28220000       1.94990000      -1.10840000
H       -0.64770000       1.98510000       0.62670000
H       -0.83270000      -0.31490000      -0.28120000
H        0.47520000      -2.32090000      -1.18760000
H        2.22160000      -2.00160000      -1.34850000
H        1.61920000      -3.99090000       0.86790000
H        1.03070000      -3.21520000       2.34170000
H       -0.05110000      -3.41180000       0.95340000
H        3.19290000      -1.89080000       2.08250000
H        3.53430000      -1.08770000       0.53950000
H        2.02490000       0.12140000       2.87890000
H        2.38190000       0.93240000       1.34990000
H       -0.10950000      -0.68050000       1.95220000
