20
Properties=species:S:1:pos:R:3 gdb_40709=T pbc="F F F"
C        1.27240000       0.66240000       0.24580000
N        0.59290000       0.04170000      -0.90470000
C       -0.16570000       0.31610000       0.32580000
C       -0.69970000      -0.88330000       1.06830000
C        0.20690000      -2.11740000       1.25780000
C        0.08010000      -1.79170000       2.74070000
C       -0.13480000      -2.69050000       3.91170000
C        1.10210000      -1.80080000       3.82820000
O       -0.75470000      -0.65470000       2.50450000
H        2.01980000       0.04060000       0.72910000
H        1.53220000       1.71650000       0.19620000
H        0.38620000       0.73940000      -1.61370000
H       -0.85720000       1.15780000       0.31520000
H       -1.69970000      -1.12770000       0.68730000
H       -0.24010000      -3.06240000       0.94500000
H        1.20660000      -2.03710000       0.82920000
H       -0.90550000      -2.40280000       4.61880000
H       -0.01710000      -3.76100000       3.77580000
H        2.06500000      -2.26360000       3.63550000
H        1.13490000      -0.93440000       4.48020000
