17
Properties=species:S:1:pos:R:3 gdb_127735=T pbc="F F F"
C       -0.00140000       1.38440000       0.03090000
N       -0.02040000      -0.05900000       0.05220000
N       -0.16390000      -0.77330000      -1.10880000
N       -0.14890000      -2.02900000      -0.78650000
C        0.00040000      -2.16280000       0.55990000
C        0.04990000      -3.46770000       1.28360000
O        1.03800000      -3.46020000       2.32420000
C        0.09270000      -0.89400000       1.10940000
N        0.19580000      -0.48190000       2.42900000
H        0.98180000       1.77640000       0.31580000
H       -0.22300000       1.69430000      -0.99030000
H       -0.75870000       1.78950000       0.70910000
H       -0.89120000      -3.68160000       1.80330000
H        0.21810000      -4.27780000       0.56240000
H        1.89310000      -3.33800000       1.89700000
H        0.52430000      -1.24690000       3.00850000
H        0.76030000       0.34610000       2.57060000
