15
Properties=species:S:1:pos:R:3 gdb_27772=T pbc="F F F"
C        0.02560000       1.49740000       0.01680000
C       -0.02900000       0.00130000       0.00590000
C       -1.18180000      -0.69870000      -0.11010000
C       -1.17670000      -2.13750000      -0.11420000
N       -2.18020000      -2.90030000      -0.21530000
O        0.12460000      -2.70260000       0.01320000
C        1.19620000      -1.89550000       0.12150000
O        2.32650000      -2.58930000       0.23180000
N        1.21100000      -0.62000000       0.12710000
H        0.65990000       1.85310000      -0.80240000
H       -0.96710000       1.94090000      -0.07940000
H        0.48870000       1.84730000       0.94580000
H       -2.14570000      -0.21840000      -0.20330000
H       -1.90910000      -3.88240000      -0.19160000
H        2.10870000      -3.53040000       0.20720000
