17
Properties=species:S:1:pos:R:3 gdb_41048=T pbc="F F F"
C        0.02820000       1.48940000      -0.24300000
C        1.54440000       1.58840000       0.17860000
C        1.48790000       0.13680000       0.71800000
C        0.96110000      -0.48980000       2.04390000
C        0.86120000      -1.78530000       1.27560000
C       -0.33490000      -0.82660000       1.31200000
C        0.08570000      -0.01000000       0.08310000
O        0.57800000      -0.89250000      -0.96710000
C        1.59940000      -1.23570000       0.00180000
H       -0.64590000       2.04490000       0.41340000
H       -0.20840000       1.72820000      -1.28120000
H        2.23130000       1.70780000      -0.66190000
H        1.77880000       2.35010000       0.92500000
H        1.17390000      -0.31930000       3.08970000
H        0.81470000      -2.79360000       1.66080000
H       -1.30810000      -1.11660000       1.69020000
H        2.46280000      -1.75630000      -0.41760000
