20
Properties=species:S:1:pos:R:3 gdb_8189=T pbc="F F F"
C       -0.00370000       1.53310000       0.02030000
C        0.03260000       0.01690000       0.04010000
C       -1.17750000      -0.64310000      -0.60070000
C        1.32230000      -0.73510000      -0.17360000
O        2.45330000      -0.00260000       0.30200000
C        1.93140000      -0.06600000       1.65510000
C        0.65790000      -0.77750000       1.19310000
C       -0.01030000      -1.85140000       2.00480000
H        0.96660000       1.96120000       0.27830000
H       -0.26260000       1.89270000      -0.98200000
H       -0.75550000       1.92410000       0.71570000
H       -1.34030000      -0.23630000      -1.60470000
H       -1.05480000      -1.72580000      -0.70220000
H       -2.08940000      -0.46530000      -0.01870000
H        1.49210000      -1.48010000      -0.94520000
H        2.56860000      -0.70540000       2.27850000
H        1.83970000       0.92310000       2.11950000
H       -0.49630000      -1.42540000       2.89180000
H       -0.77930000      -2.38310000       1.43980000
H        0.71830000      -2.59210000       2.35410000
