21
Properties=species:S:1:pos:R:3 gdb_86386=T pbc="F F F"
C       -0.00600000       1.56850000       0.01760000
C        0.04450000       0.03970000       0.02150000
C        0.77300000      -0.56960000      -1.20290000
C        1.28200000      -1.94860000      -0.73390000
O        2.47530000      -2.39610000      -1.36910000
C        1.52710000      -1.78530000       0.75260000
O        1.56220000      -2.94530000       1.52490000
C        2.29170000      -0.56250000       1.19670000
C        0.77190000      -0.57640000       1.21740000
H        1.00390000       1.99210000       0.04460000
H       -0.50540000       1.94630000      -0.88120000
H       -0.55120000       1.94970000       0.88750000
H       -0.98630000      -0.34010000       0.03560000
H        0.12620000      -0.63340000      -2.08320000
H        1.63840000       0.04130000      -1.48300000
H        0.49070000      -2.70650000      -0.84540000
H        2.26050000      -2.64200000      -2.27400000
H        2.35860000      -3.42560000       1.26990000
H        2.77440000      -0.65260000       2.16330000
H        2.83030000       0.04340000       0.47600000
H        0.28490000      -0.57860000       2.18650000
