11
Properties=species:S:1:pos:R:3 gdb_907=T pbc="F F F"
N       -0.07590000       1.30830000      -0.14010000
C       -0.01220000       0.04920000       0.03630000
N        1.23220000      -0.63970000       0.13320000
C        1.20680000      -1.90310000       0.30970000
N        0.04470000      -2.63420000       0.41120000
C       -1.14570000      -1.94140000       0.31390000
N       -1.22110000      -0.68170000       0.13780000
H        0.87760000       1.67060000      -0.19040000
H        2.13120000      -2.47320000       0.38990000
H        0.06220000      -3.63100000       0.55060000
H       -2.04740000      -2.54590000       0.39790000
