22
Properties=species:S:1:pos:R:3 gdb_122553=T pbc="F F F"
C        0.15710000       1.43840000       0.17790000
C       -0.15820000      -0.01900000      -0.16630000
C        0.78410000      -0.58700000      -1.21870000
O        0.41800000      -1.92810000      -1.47760000
C        1.19750000      -2.54540000      -2.45620000
C        2.66970000      -3.01870000      -2.12040000
C        2.23910000      -4.42620000      -2.54290000
N        1.17870000      -4.81410000      -1.58670000
C        0.83030000      -3.99010000      -2.77090000
H        1.17390000       1.54560000       0.57190000
H        0.07420000       2.08480000      -0.70300000
H       -0.53280000       1.82150000       0.93530000
H       -0.09360000      -0.64570000       0.73030000
H       -1.18600000      -0.10970000      -0.53630000
H        0.72810000       0.00990000      -2.14670000
H        1.82760000      -0.53280000      -0.86550000
H        1.20840000      -1.94610000      -3.38060000
H        3.42380000      -2.55630000      -2.76010000
H        2.95830000      -2.93830000      -1.07010000
H        2.81990000      -5.17050000      -3.07260000
H        0.90050000      -5.76870000      -1.81490000
H        0.09170000      -4.33450000      -3.48440000
