19
Properties=species:S:1:pos:R:3 gdb_89502=T pbc="F F F"
O       -0.03040000       1.46360000       0.02370000
C        0.06950000       0.04370000      -0.03520000
C       -1.36940000      -0.54530000      -0.00140000
C       -1.27540000      -1.78840000      -0.90700000
O       -1.09190000      -2.99890000      -0.18000000
C       -2.07440000      -2.02890000      -2.24170000
C       -0.69150000      -2.20060000      -2.98500000
C       -0.09440000      -1.49340000      -1.79190000
C        0.62330000      -0.45940000      -1.37470000
H        0.85390000       1.81940000       0.15520000
H        0.66730000      -0.31920000       0.81540000
H       -1.71420000      -0.77630000       1.01010000
H       -2.02860000       0.21550000      -0.43050000
H       -1.94320000      -3.23600000       0.20390000
H       -2.74260000      -2.89420000      -2.25090000
H       -2.61000000      -1.13870000      -2.57880000
H       -0.41110000      -3.25590000      -3.04590000
H       -0.56970000      -1.73730000      -3.96650000
H        1.42050000       0.05930000      -1.89670000
