19
Properties=species:S:1:pos:R:3 gdb_8544=T pbc="F F F"
C        0.01700000       1.51260000       0.02350000
C        0.01940000       0.00390000       0.00980000
C        0.47530000      -0.72380000      -1.27730000
C       -0.71850000      -1.67650000      -1.08450000
C       -0.50000000      -2.77580000      -0.02790000
C       -0.76730000      -1.69610000       1.03760000
C        0.41590000      -0.74770000       1.30270000
N       -1.33210000      -0.74470000      -0.02830000
H        1.04360000       1.89870000       0.04980000
H       -0.47420000       1.91140000      -0.86990000
H       -0.51350000       1.89530000       0.90150000
H        0.34720000      -0.08850000      -2.15850000
H        1.48120000      -1.15450000      -1.29910000
H       -1.31480000      -1.92670000      -1.96450000
H       -1.30110000      -3.51930000      -0.05330000
H        0.46340000      -3.29510000      -0.01060000
H       -1.40340000      -1.96240000       1.88440000
H        1.42000000      -1.17910000       1.36290000
H        0.24710000      -0.12870000       2.18870000
