18
Properties=species:S:1:pos:R:3 gdb_22982=T pbc="F F F"
C       -0.26740000       1.46720000       0.04140000
C       -0.02320000      -0.01350000       0.12720000
N        0.12620000      -0.69870000       1.19560000
O        0.06280000       0.08310000       2.35840000
C        0.01420000      -0.76970000      -1.17080000
C        0.11980000      -2.32310000      -1.19930000
C       -1.11190000      -2.41230000      -2.15080000
C       -1.33960000      -0.91250000      -1.92500000
O       -2.23220000      -0.15250000      -2.16140000
H        0.60440000       1.96890000      -0.39630000
H       -1.11680000       1.65610000      -0.62290000
H       -0.46090000       1.89620000       1.02300000
H        0.17740000      -0.57780000       3.04890000
H        0.73540000      -0.29160000      -1.84850000
H        1.05560000      -2.71810000      -1.59490000
H       -0.06480000      -2.75400000      -0.21630000
H       -0.86360000      -2.63120000      -3.19460000
H       -1.94060000      -3.05980000      -1.85290000
