23
Properties=species:S:1:pos:R:3 gdb_121149=T pbc="F F F"
C        0.10100000       1.58340000       0.05300000
C        0.01060000       0.05520000       0.06640000
C       -1.42750000      -0.46400000      -0.05980000
C       -1.52540000      -1.98350000      -0.04300000
C       -1.23700000      -2.76400000       1.28040000
C       -2.44250000      -3.70250000       0.97540000
C       -2.90070000      -2.66590000      -0.05100000
C       -4.22580000      -2.06320000      -0.20980000
O       -3.67180000      -2.93830000      -1.20480000
H        1.13720000       1.92380000       0.14430000
H       -0.30420000       1.99570000      -0.87780000
H       -0.46710000       2.02100000       0.88160000
H        0.61480000      -0.35630000      -0.75280000
H        0.45450000      -0.33030000       0.99330000
H       -2.03620000      -0.05230000       0.75750000
H       -1.86770000      -0.08490000      -0.99270000
H       -0.92420000      -2.40550000      -0.85880000
H       -0.25730000      -3.23440000       1.37720000
H       -1.41600000      -2.14010000       2.16120000
H       -2.13240000      -4.63160000       0.48800000
H       -3.12380000      -3.94350000       1.79480000
H       -5.07240000      -2.46570000       0.34620000
H       -4.32330000      -1.02070000      -0.51000000
