19
Properties=species:S:1:pos:R:3 gdb_107451=T pbc="F F F"
O        0.51760000       0.77830000      -0.86770000
C        0.02080000       0.32750000       0.37200000
C       -1.42160000      -0.11180000       0.26710000
O       -1.73550000      -0.78950000      -0.97170000
C       -2.39720000       0.46180000      -0.67360000
C       -3.80090000       0.31270000      -0.10570000
C       -3.63830000      -0.43780000       1.22170000
C       -3.07390000      -1.83420000       1.22900000
C       -2.15540000      -0.65990000       1.47250000
H        0.20830000       0.13290000      -1.51760000
H        0.61980000      -0.50900000       0.77100000
H        0.10600000       1.15650000       1.08410000
H       -2.15720000       1.27000000      -1.35920000
H       -4.21400000       1.31160000       0.07590000
H       -4.47210000      -0.19290000      -0.80860000
H       -4.29690000      -0.16120000       2.03750000
H       -3.31630000      -2.45630000       2.08400000
H       -2.96670000      -2.36180000       0.28950000
H       -1.70340000      -0.51610000       2.44730000
