13
Properties=species:S:1:pos:R:3 gdb_129049=T pbc="F F F"
N       -0.17990000       1.27820000      -0.13310000
C       -0.01730000       0.01050000      -0.00640000
C        1.22140000      -0.74060000       0.07430000
C        1.16770000      -2.07230000       0.20650000
O        0.02340000      -2.78850000       0.27240000
N       -1.19990000      -2.14620000       0.20220000
C       -1.20890000      -0.86290000       0.07440000
C       -2.59110000      -0.24050000       0.00560000
O       -3.61090000      -0.87510000       0.06020000
H        0.72230000       1.75630000      -0.17610000
H        2.17970000      -0.23700000       0.02880000
H        2.02500000      -2.73170000       0.27630000
H       -2.56590000       0.85670000      -0.09990000
