19
Properties=species:S:1:pos:R:3 gdb_90177=T pbc="F F F"
O       -0.61800000       1.16950000      -1.06890000
C       -0.06910000       0.24730000      -0.12870000
C       -1.24050000      -0.66420000       0.35060000
C       -1.18720000      -1.87610000      -0.55770000
C       -1.11120000      -1.70450000      -2.06680000
C        0.14190000      -1.86640000      -1.27260000
C        0.97860000      -0.71210000      -0.78400000
O        0.42560000      -3.24610000      -0.97910000
C       -0.80160000      -3.31360000      -0.19210000
H        0.10080000       1.71180000      -1.40910000
H        0.37740000       0.80150000       0.70900000
H       -1.06500000      -0.97210000       1.38720000
H       -2.17530000      -0.09690000       0.32610000
H       -1.42470000      -2.52460000      -2.70560000
H       -1.32870000      -0.70760000      -2.43030000
H        1.56690000      -0.19210000      -1.54860000
H        1.67410000      -1.08490000      -0.02420000
H       -0.57420000      -3.44570000       0.87300000
H       -1.45850000      -4.12410000      -0.52990000
