18
Properties=species:S:1:pos:R:3 gdb_39580=T pbc="F F F"
C       -0.00900000       1.58440000      -0.06150000
C        1.49010000       1.85190000      -0.05070000
C        2.17930000       0.83990000       0.48340000
C        1.21160000      -0.19490000       0.98690000
O        1.59370000      -1.57090000       0.90220000
C        0.50940000      -2.39210000       1.02850000
N       -0.72610000      -2.11500000       1.02110000
C       -1.17280000      -0.74020000       0.74220000
C       -0.03100000       0.05670000       0.13160000
H       -0.50160000       2.10820000       0.77160000
H       -0.50280000       1.91580000      -0.98030000
H        1.92000000       2.78300000      -0.40230000
H        3.24850000       0.79820000       0.64930000
H        0.98810000      -0.00210000       2.05070000
H        0.84240000      -3.42060000       1.15580000
H       -2.03800000      -0.80620000       0.07330000
H       -1.53530000      -0.28750000       1.67490000
H        0.19760000      -0.38870000      -0.84620000
