17
Properties=species:S:1:pos:R:3 gdb_18572=T pbc="F F F"
C       -0.26810000       1.50510000      -0.22780000
C        0.01830000       0.03680000      -0.01910000
O        1.28790000      -0.36150000      -0.71550000
C        1.86780000      -0.48730000       0.51310000
N        3.01250000      -0.27620000       0.99980000
C        2.71320000      -0.10420000       2.45560000
C        1.19590000       0.32380000       2.54810000
C        0.63410000      -0.44500000       1.34180000
H        0.56160000       2.12430000       0.12400000
H       -0.42500000       1.71490000      -1.28940000
H       -1.17380000       1.78970000       0.31780000
H       -0.79250000      -0.59830000      -0.38270000
H        2.90050000      -1.03550000       3.00660000
H        3.38110000       0.65740000       2.86620000
H        0.73120000       0.06650000       3.50280000
H        1.11860000       1.40710000       2.41090000
H        0.23960000      -1.42720000       1.61460000
