18
Properties=species:S:1:pos:R:3 gdb_66018=T pbc="F F F"
C       -0.11440000       1.57530000      -0.02590000
C       -0.04930000       0.04450000       0.00300000
C        1.10630000      -0.54170000      -0.87860000
C        1.99110000      -0.66720000       0.38560000
C        0.71030000      -0.54700000       1.26910000
C        0.75630000       0.23540000       2.48360000
C        0.80670000       0.90080000       3.48420000
C       -1.36760000      -0.53330000      -0.22810000
N       -2.40530000      -1.01000000      -0.41180000
H        0.87930000       2.00030000       0.13750000
H       -0.48450000       1.91850000      -0.99610000
H       -0.77710000       1.95320000       0.75600000
H        0.84130000      -1.51220000      -1.30210000
H        1.45730000       0.11120000      -1.67980000
H        2.56990000      -1.58380000       0.50460000
H        2.65460000       0.18830000       0.52360000
H        0.31170000      -1.54360000       1.48020000
H        0.84710000       1.47820000       4.37470000
