12
Properties=species:S:1:pos:R:3 gdb_130260=T pbc="F F F"
N        0.05730000       1.40430000       0.05900000
C       -0.01450000       0.05260000      -0.02880000
N       -1.15890000      -0.54230000      -0.04340000
O       -1.12570000      -1.95470000      -0.21140000
C       -0.00330000      -2.67800000      -0.35760000
O       -0.02270000      -3.85350000      -0.52090000
O        1.19570000      -2.00380000      -0.30400000
C        1.27920000      -0.65420000      -0.12000000
N        2.37350000      -0.03670000      -0.02070000
H        0.95730000       1.78610000       0.30370000
H       -0.77500000       1.90670000       0.32090000
H        3.17410000      -0.66550000      -0.09170000
