22
Properties=species:S:1:pos:R:3 gdb_98458=T pbc="F F F"
C       -1.97060000       1.88640000      -0.30270000
C       -1.29940000       0.54790000      -0.60930000
C       -1.73360000      -0.56210000       0.34890000
O       -2.29340000      -0.29650000       1.39170000
C       -1.42400000      -1.99940000       0.00460000
C       -1.45840000      -2.97280000       1.16930000
C       -0.28660000      -2.78030000       2.13780000
C       -1.84860000      -2.46190000      -1.36010000
N       -0.43190000      -2.31500000      -1.04690000
H       -1.58410000       2.67090000      -0.95900000
H       -3.05310000       1.82170000      -0.44370000
H       -1.79440000       2.17490000       0.73520000
H       -1.47610000       0.25320000      -1.65060000
H       -0.20760000       0.64230000      -0.51070000
H       -2.40780000      -2.84610000       1.69780000
H       -1.43670000      -3.98910000       0.76260000
H       -0.31720000      -3.52690000       2.93700000
H        0.66780000      -2.88560000       1.61240000
H       -0.32050000      -1.79150000       2.60390000
H       -2.19930000      -3.48520000      -1.46290000
H       -2.32340000      -1.75240000      -2.03250000
H       -0.06040000      -1.46900000      -1.47000000
