12
Properties=species:S:1:pos:R:3 gdb_131434=T pbc="F F F"
O        0.23360000       1.31020000       0.10470000
C        0.05850000      -0.01450000       0.05960000
N       -0.12600000      -0.64600000      -1.07750000
O       -0.27420000      -2.00170000      -0.70600000
C       -0.15270000      -2.08320000       0.62400000
O       -0.29890000      -3.29160000       1.19550000
C        0.15240000      -4.41590000       0.52300000
O       -0.03450000      -5.49820000       0.96850000
C        0.05710000      -0.87140000       1.19460000
H        0.19000000       1.64770000      -0.80080000
H        0.67650000      -4.16630000      -0.40960000
H        0.19420000      -0.62710000       2.23230000
