18
Properties=species:S:1:pos:R:3 gdb_52498=T pbc="F F F"
C       -0.05240000       1.02590000      -0.72280000
C       -0.02940000      -0.37950000      -0.35970000
C       -0.00890000      -1.55070000      -0.05500000
C        0.01430000      -2.86680000       0.28740000
C        0.04520000      -4.03680000       0.60340000
C        0.05830000      -5.45760000       0.95670000
N       -0.78220000      -6.36050000       0.15930000
C       -2.06900000      -5.87270000      -0.32610000
C       -0.93570000      -6.09620000      -1.26760000
H        0.88970000       1.33050000      -1.19250000
H       -0.86140000       1.23760000      -1.43110000
H       -0.20690000       1.66020000       0.15740000
H        1.08730000      -5.83420000       0.89400000
H       -0.24930000      -5.57040000       2.00420000
H       -2.88690000      -6.58440000      -0.26150000
H       -2.33600000      -4.83770000      -0.12440000
H       -0.46390000      -5.20710000      -1.67970000
H       -0.90790000      -6.97490000      -1.90560000
