23
Properties=species:S:1:pos:R:3 gdb_104089=T pbc="F F F"
C        0.10130000       1.55610000      -0.05130000
C       -0.00460000       0.02760000       0.00530000
C       -1.43770000      -0.53360000       0.00110000
C       -2.23210000      -0.04960000       1.22820000
C       -2.23330000      -0.18090000      -1.29440000
C       -3.00270000      -1.43990000      -1.60430000
C       -2.61120000      -2.47140000      -0.85690000
C       -1.44510000      -2.10930000       0.02890000
O       -0.24490000      -2.74120000      -0.42290000
H        1.15030000       1.86420000      -0.10390000
H       -0.40500000       1.96610000      -0.93210000
H       -0.33380000       2.03290000       0.83230000
H        0.54040000      -0.40100000      -0.84240000
H        0.51420000      -0.34020000       0.89930000
H       -2.37170000       1.03520000       1.21810000
H       -3.22530000      -0.51040000       1.25340000
H       -1.71610000      -0.31420000       2.15790000
H       -2.89420000       0.68160000      -1.14800000
H       -1.57190000       0.08650000      -2.13090000
H       -3.78040000      -1.47570000      -2.36070000
H       -2.99910000      -3.48260000      -0.91150000
H       -1.55600000      -2.46480000       1.05930000
H       -0.23880000      -2.68980000      -1.38510000
