18
Properties=species:S:1:pos:R:3 gdb_91887=T pbc="F F F"
C        0.01540000       1.50100000       0.00570000
C        0.02510000      -0.00870000      -0.04480000
O        0.83670000      -0.42060000      -1.10800000
C        0.91340000      -1.81800000      -1.22020000
C        2.16840000      -2.44550000      -0.70920000
C        0.86530000      -2.59750000       0.07160000
C        0.66240000      -1.84210000       1.33640000
N        0.63060000      -2.42050000       2.46110000
O        0.54060000      -0.48170000       1.20900000
H        1.03650000       1.86840000       0.13270000
H       -0.39380000       1.89860000      -0.92560000
H       -0.59530000       1.84320000       0.84370000
H       -0.98920000      -0.42160000      -0.16410000
H        0.42210000      -2.21380000      -2.10520000
H        2.55250000      -3.33350000      -1.19700000
H        2.91570000      -1.76800000      -0.31340000
H        0.41610000      -3.58210000       0.07350000
H        0.46880000      -1.73290000       3.20020000
