23
Properties=species:S:1:pos:R:3 gdb_101255=T pbc="F F F"
C        0.01520000       1.53420000       0.21130000
C       -0.12290000       0.01040000       0.23170000
C       -1.44210000      -0.48230000      -0.37460000
O       -1.60470000      -0.07230000      -1.73140000
C       -1.55600000      -1.99230000      -0.28010000
O       -1.70890000      -2.56680000       1.02140000
C       -2.77120000      -2.75400000       0.06070000
C       -4.08250000      -2.07980000       0.39790000
C       -2.90140000      -4.17470000      -0.44810000
H        0.98760000       1.84860000       0.60160000
H       -0.08900000       1.91960000      -0.80660000
H       -0.75990000       2.00660000       0.82470000
H        0.70990000      -0.45090000      -0.32100000
H       -0.05760000      -0.37170000       1.25680000
H       -2.27290000      -0.01370000       0.16150000
H       -0.84020000      -0.38860000      -2.22620000
H       -0.81640000      -2.50840000      -0.90380000
H       -3.93320000      -1.09920000       0.85140000
H       -4.69590000      -1.95890000      -0.50130000
H       -4.64640000      -2.69460000       1.10790000
H       -3.40760000      -4.80190000       0.29390000
H       -3.49200000      -4.20360000      -1.37010000
H       -1.91920000      -4.60950000      -0.64910000
