15
Properties=species:S:1:pos:R:3 gdb_31382=T pbc="F F F"
N       -0.14580000       1.38380000      -0.25730000
C       -0.00690000      -0.03600000      -0.01040000
C        0.83410000      -0.42550000       1.18910000
N        1.39710000       0.42220000       1.95280000
C        2.17190000      -0.01670000       3.06090000
O        2.71410000       0.77580000       3.79710000
C        2.25110000      -1.47370000       3.22470000
C        1.61770000      -2.27240000       2.36000000
O        0.89200000      -1.78600000       1.31940000
H       -0.53430000       1.82990000       0.56930000
H        0.77720000       1.79640000      -0.36130000
H       -0.99760000      -0.49070000       0.11850000
H        0.42610000      -0.52700000      -0.89140000
H        2.82370000      -1.88280000       4.04660000
H        1.60510000      -3.35520000       2.38090000
