19
Properties=species:S:1:pos:R:3 gdb_85692=T pbc="F F F"
C       -0.75120000       1.31220000      -0.00640000
C       -0.04490000      -0.02700000      -0.05990000
O        1.17880000       0.02750000      -0.84550000
C        1.98110000      -0.50170000       0.24090000
C        3.10820000       0.34060000       0.60680000
C        4.04170000       1.02210000       0.93850000
C        0.74920000      -0.49540000       1.15980000
C        0.66940000      -0.02750000       2.57690000
C        0.39090000      -1.47380000       2.23130000
H       -0.09470000       2.07970000       0.41230000
H       -1.04870000       1.61920000      -1.01390000
H       -1.65630000       1.24620000       0.60800000
H       -0.71640000      -0.79900000      -0.46330000
H        2.33970000      -1.51220000      -0.00260000
H        4.86850000       1.62810000       1.21670000
H        1.60280000       0.21370000       3.07500000
H       -0.16720000       0.60220000       2.86230000
H       -0.63590000      -1.82410000       2.27750000
H        1.12880000      -2.22000000       2.50890000
