25
Properties=species:S:1:pos:R:3 gdb_117832=T pbc="F F F"
C       -0.27730000       1.53350000       0.11830000
C        0.06140000       0.04230000       0.01840000
C        0.74000000      -0.41950000      -1.29480000
C        0.01460000       0.10230000      -2.54600000
C        2.21270000       0.05570000      -1.34470000
O        3.05190000      -0.61740000      -0.41940000
C        0.70810000      -1.95890000      -1.28510000
O        1.63870000      -2.46830000      -2.22870000
C        1.57220000      -3.86920000      -2.36650000
H        0.60820000       2.16570000      -0.00290000
H       -1.01000000       1.83870000      -0.63470000
H       -0.70330000       1.75890000       1.10090000
H        0.72670000      -0.23450000       0.84470000
H       -0.86300000      -0.53560000       0.15790000
H        0.16550000       1.17800000      -2.68150000
H        0.39190000      -0.40460000      -3.43920000
H       -1.06460000      -0.07660000      -2.48290000
H        2.59320000      -0.05570000      -2.36810000
H        2.26520000       1.11970000      -1.09240000
H        3.19000000      -1.49670000      -0.78980000
H        0.95800000      -2.33670000      -0.28150000
H       -0.30720000      -2.31310000      -1.52710000
H        1.77350000      -4.38440000      -1.41410000
H        0.58410000      -4.19290000      -2.72770000
H        2.33040000      -4.16440000      -3.09600000
