20
Properties=species:S:1:pos:R:3 gdb_101920=T pbc="F F F"
C       -0.06010000       1.60690000      -0.13080000
C        0.01380000       0.07740000      -0.13820000
C       -1.35810000      -0.62440000      -0.01940000
C       -2.25820000      -0.33470000      -1.20770000
C       -3.72000000      -0.29050000      -1.08760000
O       -2.95530000       0.91210000      -1.20540000
C       -1.13560000      -2.13800000       0.04320000
N       -1.47420000      -2.73740000       1.22130000
O       -0.68950000      -2.76040000      -0.90270000
H        0.94470000       2.03600000      -0.19490000
H       -0.64830000       1.98970000      -0.96810000
H       -0.52360000       1.97780000       0.78990000
H        0.49630000      -0.28160000      -1.05390000
H        0.64770000      -0.26170000       0.69090000
H       -1.86890000      -0.27000000       0.88480000
H       -1.83370000      -0.61860000      -2.16990000
H       -4.34260000      -0.53640000      -1.94610000
H       -4.18630000      -0.45250000      -0.11610000
H       -1.76710000      -2.21300000       2.02620000
H       -1.28040000      -3.72040000       1.32700000
