18
Properties=species:S:1:pos:R:3 gdb_75322=T pbc="F F F"
C        0.19050000       1.50270000       0.17570000
C        0.06500000       0.01640000       0.07360000
C       -0.07230000      -0.73290000      -1.02370000
C       -0.17400000      -2.20230000      -0.69080000
N       -0.00460000      -2.30210000       0.78030000
C        1.27790000      -1.85070000       1.28100000
C        0.11290000      -0.89140000       1.26830000
C       -0.57440000      -0.59380000       2.55210000
O       -1.03620000       0.47670000       2.86400000
H        1.15150000       1.78640000       0.62290000
H        0.11900000       1.97210000      -0.80880000
H       -0.58550000       1.91140000       0.82860000
H       -0.09300000      -0.35650000      -2.04000000
H       -1.15210000      -2.62290000      -0.95880000
H        0.58460000      -2.81490000      -1.19400000
H        1.59170000      -2.31970000       2.21080000
H        2.07860000      -1.61820000       0.58170000
H       -0.62710000      -1.47300000       3.23160000
