19
Properties=species:S:1:pos:R:3 gdb_119822=T pbc="F F F"
O       -0.12190000       1.46580000      -0.07150000
C        0.01880000       0.05630000      -0.13590000
C       -1.35700000      -0.55150000       0.15140000
C       -1.37460000      -2.04920000       0.09660000
C       -1.61500000      -2.87570000       1.12120000
C       -1.58040000      -4.32900000       0.74100000
C       -1.27920000      -4.28970000      -0.76640000
O       -1.17460000      -5.24200000      -1.49250000
C       -1.13350000      -2.81740000      -1.18330000
H        0.73640000       1.86340000      -0.24430000
H        0.37370000      -0.26320000      -1.12850000
H        0.74390000      -0.31270000       0.60660000
H       -1.68520000      -0.20700000       1.13760000
H       -2.06040000      -0.13650000      -0.58320000
H       -1.82620000      -2.54190000       2.13160000
H       -0.80460000      -4.90780000       1.25980000
H       -2.52410000      -4.86050000       0.92130000
H       -1.85390000      -2.57660000      -1.97670000
H       -0.14020000      -2.65610000      -1.62200000
