19
Properties=species:S:1:pos:R:3 gdb_82858=T pbc="F F F"
C       -0.20330000       1.55340000       0.04620000
C        0.03990000       0.04830000      -0.01560000
C        0.90590000      -0.49390000      -1.18970000
C        2.25210000       0.26420000      -1.32540000
C        2.73450000      -0.52430000      -0.09260000
O        2.17650000       0.00690000       1.11970000
C        0.85660000      -0.53590000       1.16030000
O        1.01520000      -1.89440000       0.79070000
C        1.68150000      -1.63920000      -0.42600000
H        0.72280000       2.10180000       0.23370000
H       -0.64080000       1.92510000      -0.88590000
H       -0.89910000       1.79630000       0.85660000
H       -0.92200000      -0.47640000      -0.02900000
H        0.33580000      -0.72290000      -2.09000000
H        2.79460000      -0.04510000      -2.22480000
H        2.25730000       1.35320000      -1.25990000
H        3.79280000      -0.73410000       0.06640000
H        0.45260000      -0.44280000       2.16790000
H        1.97840000      -2.55220000      -0.93460000
