23
Properties=species:S:1:pos:R:3 gdb_80383=T pbc="F F F"
C       -0.12670000       1.54170000      -0.00400000
C       -0.00040000       0.04090000      -0.02330000
C       -0.84380000      -0.81040000       0.87570000
O       -1.66830000      -1.83860000       0.39290000
C        0.64280000      -0.93610000       1.00310000
C        1.18380000      -1.80330000      -0.13810000
C        0.64150000      -0.76900000      -1.18680000
C       -0.29150000      -1.28500000      -2.28460000
C        1.80920000       0.00200000      -1.81290000
H        0.81720000       2.03770000      -0.25100000
H       -0.87860000       1.88270000      -0.72650000
H       -0.43820000       1.89800000       0.98330000
H       -1.30710000      -0.23140000       1.67710000
H       -1.65790000      -2.55190000       1.04030000
H        1.16120000      -0.72070000       1.93150000
H        2.27280000      -1.88610000      -0.15180000
H        0.75310000      -2.80740000      -0.19710000
H       -1.11230000      -1.86710000      -1.86670000
H       -0.71740000      -0.45020000      -2.85440000
H        0.26110000      -1.91280000      -2.99430000
H        2.38070000      -0.65660000      -2.47640000
H        1.45750000       0.85010000      -2.41090000
H        2.49530000       0.38850000      -1.05170000
