20
Properties=species:S:1:pos:R:3 gdb_104422=T pbc="F F F"
C       -0.08220000       1.57980000       0.01240000
C       -0.02840000       0.04460000      -0.04780000
C       -1.46690000      -0.52260000      -0.02480000
O       -2.13540000      -0.19270000       1.17000000
C        0.72970000      -0.46550000      -1.28530000
C        2.23120000      -0.31490000      -1.07600000
O        2.65310000      -0.94460000       0.14510000
C        1.77420000      -0.89780000       1.16860000
N        0.58890000      -0.45710000       1.19240000
H        0.91760000       2.01790000       0.07930000
H       -0.57640000       1.97690000      -0.88080000
H       -0.65350000       1.89270000       0.88820000
H       -2.05010000      -0.10460000      -0.85340000
H       -1.41310000      -1.61500000      -0.16660000
H       -1.49920000      -0.40000000       1.87010000
H        0.49920000      -1.52560000      -1.44570000
H        0.42980000       0.07580000      -2.18880000
H        2.80780000      -0.79470000      -1.87000000
H        2.52280000       0.74130000      -1.03240000
H        2.22760000      -1.32490000       2.06180000
