21
Properties=species:S:1:pos:R:3 gdb_36193=T pbc="F F F"
C       -0.00640000      -1.23150000       0.10630000
C       -0.03280000      -0.02970000       0.13320000
C       -0.01830000       1.43020000       0.15790000
C        1.37730000       2.00320000      -0.06860000
C        2.41680000       1.82810000       1.07400000
C        2.70370000       3.36060000       1.05710000
C        1.67900000       3.55180000      -0.09120000
C        2.26590000       3.40840000      -1.51950000
C        1.98020000       1.87570000      -1.49590000
H        0.00330000      -2.29280000       0.08500000
H       -0.70360000       1.81530000      -0.60960000
H       -0.40940000       1.78310000       1.12200000
H        1.97390000       1.47830000       2.01060000
H        3.26120000       1.17470000       0.83840000
H        2.42030000       3.86280000       1.98550000
H        3.72960000       3.65450000       0.81540000
H        0.90770000       4.31110000       0.05390000
H        1.69490000       3.94190000      -2.28350000
H        3.31580000       3.69960000      -1.61970000
H        2.85090000       1.21950000      -1.57600000
H        1.25070000       1.55720000      -2.24560000
