19
Properties=species:S:1:pos:R:3 gdb_67740=T pbc="F F F"
C       -0.03890000       1.47720000       0.04450000
C       -0.00560000      -0.03020000      -0.04190000
C        0.97090000      -0.71930000      -0.94070000
C        0.55450000      -1.95990000      -1.20810000
C       -0.68790000      -2.23880000      -0.38650000
O       -1.60140000      -3.19270000      -0.84520000
C       -0.22070000      -2.30940000       1.12760000
C       -0.48120000      -0.81080000       1.21970000
C       -1.28030000      -0.83270000      -0.06290000
H        0.89320000       1.87310000       0.46350000
H       -0.17800000       1.92630000      -0.94510000
H       -0.85960000       1.81890000       0.68330000
H        1.89770000      -0.26290000      -1.26850000
H        1.09010000      -2.72460000      -1.75970000
H       -1.13980000      -4.03180000      -0.94760000
H       -0.97590000      -2.85360000       1.70140000
H        0.78020000      -2.70030000       1.34080000
H       -0.67760000      -0.25990000       2.13260000
H       -2.26970000      -0.46540000      -0.30830000
