19
Properties=species:S:1:pos:R:3 gdb_54999=T pbc="F F F"
C       -1.88390000       1.11700000      -0.02030000
C       -0.96000000      -0.08210000      -0.09010000
O       -0.28950000      -0.42950000       0.86030000
C       -0.92550000      -0.79440000      -1.40770000
C        0.19420000      -1.75390000      -1.71600000
C       -1.17620000      -2.31840000      -1.51440000
C       -1.61970000      -3.18340000      -0.35520000
C       -0.61930000      -3.57040000       0.71100000
O       -2.76060000      -3.59140000      -0.34790000
H       -1.85850000       1.54980000       0.98000000
H       -1.58040000       1.87030000      -0.75660000
H       -2.90760000       0.81910000      -0.27390000
H       -1.35480000      -0.23510000      -2.23220000
H        0.61090000      -1.75080000      -2.71680000
H        0.91140000      -1.88540000      -0.91330000
H       -1.74640000      -2.56910000      -2.40340000
H       -0.19130000      -2.68020000       1.17910000
H       -1.11490000      -4.19480000       1.45520000
H        0.20700000      -4.12930000       0.25580000
