22
Properties=species:S:1:pos:R:3 gdb_108476=T pbc="F F F"
C       -1.59950000       0.84350000      -0.95850000
C       -0.09030000       0.88290000      -0.68980000
C        0.72340000      -0.06290000      -1.55090000
C        0.58790000      -0.06870000      -3.09240000
O        0.52930000      -1.51800000      -3.11500000
C        0.53660000      -1.60200000      -1.68060000
C        1.93430000      -1.76080000      -1.05780000
N        2.15420000      -0.30560000      -1.19020000
C        2.80310000       0.39060000      -0.10490000
H       -1.84250000       1.16280000      -1.97590000
H       -2.00070000      -0.16590000      -0.82160000
H       -2.12800000       1.50880000      -0.26940000
H        0.28110000       1.90650000      -0.83680000
H        0.09090000       0.64540000       0.36520000
H       -0.33440000       0.36430000      -3.50030000
H        1.45820000       0.32430000      -3.62760000
H       -0.28880000      -2.19930000      -1.28650000
H        1.87470000      -2.09770000      -0.00870000
H        2.64760000      -2.39140000      -1.59950000
H        3.85180000       0.07600000      -0.05700000
H        2.79420000       1.47030000      -0.28460000
H        2.35880000       0.20400000       0.89160000
