16
Properties=species:S:1:pos:R:3 gdb_5267=T pbc="F F F"
O       -0.07390000       1.46410000       0.05440000
C        0.02600000       0.05040000       0.11470000
C       -1.37290000      -0.52280000      -0.12180000
C       -1.40440000      -2.01930000      -0.05150000
C       -1.58040000      -2.89030000      -1.08210000
O       -1.53490000      -4.17950000      -0.65000000
C       -1.32300000      -4.13350000       0.69100000
C       -1.23420000      -2.84770000       1.11490000
H        0.80330000       1.83420000       0.18820000
H        0.71460000      -0.34090000      -0.65050000
H        0.40320000      -0.28460000       1.09410000
H       -2.04790000      -0.08670000       0.62420000
H       -1.72460000      -0.18180000      -1.10110000
H       -1.75060000      -2.75510000      -2.13790000
H       -1.26530000      -5.08770000       1.18840000
H       -1.07580000      -2.51630000       2.12990000
