14
Properties=species:S:1:pos:R:3 gdb_21149=T pbc="F F F"
C       -0.07630000       1.41700000       0.04870000
N       -0.02900000      -0.03630000      -0.00940000
C        0.55380000      -0.58760000      -0.97840000
O        1.19070000      -0.04100000      -2.06260000
N        1.65650000      -1.12440000      -2.87900000
N        1.33630000      -2.19450000      -2.32280000
N        0.68230000      -1.95560000      -1.17820000
C        0.16650000      -3.00110000      -0.32450000
H        0.76750000       1.80630000       0.63290000
H       -0.05180000       1.89700000      -0.93770000
H       -0.99340000       1.72080000       0.56100000
H        0.44960000      -3.95880000      -0.75990000
H        0.58890000      -2.90350000       0.67890000
H       -0.92220000      -2.92630000      -0.25440000
