18
Properties=species:S:1:pos:R:3 gdb_108426=T pbc="F F F"
O        0.12500000       1.36520000       0.28440000
C        0.06740000      -0.04130000       0.13490000
C       -1.34980000      -0.53810000      -0.04030000
C       -2.34720000      -0.37760000       1.13430000
C       -2.57740000      -1.92320000       1.14420000
C       -1.68080000      -2.06130000      -0.11690000
N       -2.41890000      -2.22110000      -1.37810000
C       -2.44940000      -1.07230000      -1.91370000
O       -1.86320000      -0.01060000      -1.29910000
H       -0.28510000       1.74520000      -0.50060000
H        0.67700000      -0.38770000      -0.71470000
H        0.49360000      -0.47010000       1.04810000
H       -1.90830000       0.04450000       2.04050000
H       -3.22440000       0.21400000       0.86630000
H       -2.16930000      -2.42440000       2.02510000
H       -3.60580000      -2.25590000       0.99410000
H       -0.86420000      -2.78670000      -0.06020000
H       -2.91560000      -0.83510000      -2.86390000
