19
Properties=species:S:1:pos:R:3 gdb_61573=T pbc="F F F"
N        0.10360000       0.85930000       0.07720000
H       -1.33700000      -0.36040000       0.23200000
H        1.09220000       0.81620000       0.29470000
H        0.01330000       1.30820000      -0.83010000
C       -0.64460000       1.60120000       1.10620000
C       -0.68420000       3.12890000       0.93860000
C        0.66870000       3.77930000       1.10590000
C        0.79480000       5.13810000       1.68350000
N        1.24480000       3.96070000       2.45130000
C       -2.07460000       1.02370000       1.21430000
O       -2.21310000      -0.17470000       0.63770000
O       -2.96830000       1.58740000       1.78890000
H       -0.17240000       1.36920000       2.06970000
H       -1.09470000       3.36640000      -0.05330000
H       -1.39480000       3.52800000       1.66940000
H        1.41600000       3.47970000       0.37160000
H        1.58950000       5.80200000       1.35560000
H       -0.11710000       5.64180000       1.99360000
H        0.54430000       3.73390000       3.15520000
