18
Properties=species:S:1:pos:R:3 gdb_39036=T pbc="F F F"
C       -0.09280000       1.52840000       0.09960000
N        1.19640000       0.82120000      -0.01790000
C        1.83620000       0.53420000       1.29830000
C        0.93500000      -0.46830000       2.00820000
C       -0.11260000      -0.74260000       1.23650000
C       -1.20510000      -1.75160000       1.07400000
O       -1.59240000      -1.66060000      -0.30970000
C       -0.65440000      -0.87310000      -1.05910000
C       -0.05710000       0.05140000      -0.01980000
H       -0.36820000       1.95430000       1.06280000
H       -0.34070000       2.13950000      -0.76510000
H        2.83240000       0.10550000       1.12690000
H        1.98880000       1.47040000       1.85080000
H        1.18010000      -0.90340000       2.96980000
H       -0.86810000      -2.77060000       1.31020000
H       -2.09250000      -1.54120000       1.68430000
H        0.12150000      -1.50780000      -1.51400000
H       -1.20960000      -0.36900000      -1.85420000
