17
Properties=species:S:1:pos:R:3 gdb_51849=T pbc="F F F"
O        0.26500000       0.84770000      -1.53020000
C        0.00800000       1.22700000      -0.40540000
N        0.92680000       1.38480000       0.58100000
C        2.29090000       0.93750000       0.43190000
C        3.17740000       1.69390000      -0.56950000
C        4.59200000       1.52750000       0.02990000
N        4.31770000       1.41610000       1.45800000
C        3.02620000       1.13080000       1.76710000
O        2.52320000       1.05440000       2.86970000
H       -1.01240000       1.50350000      -0.07520000
H        0.62600000       1.53230000       1.53610000
H        2.31030000      -0.13650000       0.19180000
H        3.09030000       1.31220000      -1.58560000
H        2.89340000       2.75050000      -0.56970000
H        5.09050000       0.62680000      -0.35310000
H        5.23910000       2.38360000      -0.18080000
H        5.01680000       1.51000000       2.17710000
