21
Properties=species:S:1:pos:R:3 gdb_86139=T pbc="F F F"
C       -0.16160000       1.53260000      -0.10510000
C        0.07920000       0.02610000      -0.02670000
C        0.88910000      -0.54760000      -1.21500000
C        1.24270000      -1.95990000      -0.73840000
O        2.28300000      -2.60230000      -1.41920000
C        1.57730000      -1.72250000       0.73250000
O        2.40870000      -2.36920000       1.32460000
C        0.82770000      -0.48980000       1.24280000
C        1.82930000       0.48010000       1.89300000
H        0.77670000       2.09520000      -0.13000000
H       -0.71840000       1.78160000      -1.01450000
H       -0.74570000       1.89150000       0.74880000
H       -0.90250000      -0.46620000      -0.04030000
H        0.32930000      -0.53540000      -2.15320000
H        1.81560000       0.01970000      -1.36940000
H        0.32010000      -2.57270000      -0.76060000
H        2.83070000      -3.00940000      -0.73080000
H        0.11560000      -0.80500000       2.01470000
H        2.55510000       0.86150000       1.16770000
H        1.31640000       1.33460000       2.34130000
H        2.38590000      -0.04400000       2.67390000
