21
Properties=species:S:1:pos:R:3 gdb_91660=T pbc="F F F"
C       -0.16380000       1.49880000      -0.05670000
C        0.04130000      -0.00170000       0.06490000
O        0.91000000      -0.49650000      -0.99370000
C        1.91660000      -1.20420000      -0.24990000
C        1.09550000      -1.99080000       0.80490000
C        0.80740000      -0.53260000       1.29740000
C        2.26850000      -0.24120000       0.88830000
C        3.48790000      -0.27190000       1.74950000
C        3.13880000       0.96700000       0.93890000
H        0.77740000       2.04340000       0.03940000
H       -0.59560000       1.73630000      -1.03370000
H       -0.85750000       1.85230000       0.71430000
H       -0.93180000      -0.50530000      -0.02220000
H        2.64380000      -1.64660000      -0.92970000
H        0.25390000      -2.58070000       0.43350000
H        1.71010000      -2.56210000       1.50080000
H        0.40630000      -0.30560000       2.28500000
H        3.36610000      -0.22200000       2.82740000
H        4.33670000      -0.86800000       1.42790000
H        3.74710000       1.20010000       0.07050000
H        2.79280000       1.83950000       1.48400000
