21
Properties=species:S:1:pos:R:3 gdb_104157=T pbc="F F F"
C        0.04280000       1.53860000      -0.42130000
C        0.01140000       0.03400000      -0.16010000
C       -1.40910000      -0.46530000       0.14550000
O       -1.93630000       0.14150000       1.30570000
C        0.69590000      -0.79730000      -1.27080000
C        2.07360000      -1.13480000      -0.69300000
O        2.94250000      -0.05560000      -1.01170000
C        1.75580000      -1.21740000       0.80220000
O        0.79030000      -0.20940000       1.04560000
H        1.07430000       1.86530000      -0.56710000
H       -0.53640000       1.78350000      -1.31790000
H       -0.39520000       2.07420000       0.42380000
H       -2.08510000      -0.22410000      -0.68270000
H       -1.38420000      -1.56380000       0.24650000
H       -1.24860000       0.04270000       1.97680000
H        0.14030000      -1.72020000      -1.46770000
H        0.79360000      -0.24800000      -2.20840000
H        2.47130000      -2.08410000      -1.07890000
H        3.76000000      -0.16720000      -0.51600000
H        1.36970000      -2.22010000       1.05060000
H        2.62730000      -1.02430000       1.43880000
