14
Properties=species:S:1:pos:R:3 gdb_132804=T pbc="F F F"
N       -0.02770000       1.36390000      -0.15030000
C        0.00120000      -0.00060000      -0.05440000
N       -1.16970000      -0.66300000      -0.04200000
C       -1.08590000      -1.98930000      -0.00270000
N        0.00560000      -2.74770000       0.03330000
C        1.17860000      -2.08890000       0.03790000
N        2.33140000      -2.81980000       0.12990000
C        1.20110000      -0.70030000      -0.01030000
F        2.38080000      -0.03530000      -0.01420000
H        0.79690000       1.86820000       0.13090000
H       -0.91400000       1.78820000       0.07350000
H       -2.03360000      -2.52350000       0.00050000
H        2.23460000      -3.79850000      -0.08990000
H        3.18860000      -2.37640000      -0.15600000
