14
Properties=species:S:1:pos:R:3 gdb_129469=T pbc="F F F"
N        0.17430000       0.22640000       0.95720000
C       -0.12390000       0.22890000      -0.36360000
O        0.21340000       1.09380000      -1.14440000
C       -1.02490000      -0.93050000      -0.84950000
C       -0.85960000      -2.24920000      -0.17920000
N       -0.73260000      -2.51470000       1.09210000
C       -0.63390000      -3.88310000       1.09320000
N       -0.69620000      -4.44320000      -0.08160000
O       -0.84560000      -3.34640000      -0.94230000
H        0.76510000       0.96420000       1.30400000
H       -0.05650000      -0.56210000       1.54530000
H       -2.06210000      -0.59770000      -0.71300000
H       -0.86070000      -1.03850000      -1.92150000
H       -0.51370000      -4.47150000       1.99090000
