21
Properties=species:S:1:pos:R:3 gdb_73683=T pbc="F F F"
C        0.04430000       1.50320000      -0.01200000
C       -0.03660000      -0.02450000      -0.00260000
C       -1.46980000      -0.57830000       0.11180000
C       -1.27220000      -1.86790000       0.91450000
O       -0.23180000      -1.57430000       1.84160000
C        0.67800000      -0.66600000       1.23040000
C        1.92730000      -1.35270000       0.62800000
O        2.08010000      -0.83090000      -0.68470000
C        0.76660000      -0.62790000      -1.17930000
H        1.08560000       1.83350000      -0.08570000
H       -0.50140000       1.92240000      -0.86450000
H       -0.38380000       1.92740000       0.90240000
H       -2.10090000       0.12060000       0.67010000
H       -1.93820000      -0.75160000      -0.86210000
H       -2.15290000      -2.17640000       1.48440000
H       -0.98620000      -2.70330000       0.25540000
H        0.95160000       0.07190000       1.99020000
H        2.85040000      -1.15100000       1.17690000
H        1.75790000      -2.44130000       0.61390000
H        0.32400000      -1.58340000      -1.50880000
H        0.83210000       0.03610000      -2.04570000
