20
Properties=species:S:1:pos:R:3 gdb_29687=T pbc="F F F"
C       -0.01930000       1.44150000      -0.00340000
N        0.02560000      -0.00460000      -0.02250000
C        0.04130000      -0.81570000      -1.15290000
C        0.03350000      -0.24530000      -2.53070000
C        0.06030000      -2.11710000      -0.72030000
C        0.04710000      -2.13230000       0.71240000
C        0.06180000      -3.32530000       1.61920000
C        0.02610000      -0.81030000       1.08750000
O       -0.00420000      -0.20410000       2.30870000
H        0.77080000       1.86220000      -0.63320000
H       -0.98450000       1.82120000      -0.35900000
H        0.13140000       1.78200000       1.02090000
H        0.90850000       0.38650000      -2.73490000
H        0.04200000      -1.05970000      -3.25910000
H       -0.85570000       0.36710000      -2.73170000
H        0.07750000      -2.98600000      -1.36260000
H        1.03790000      -3.82700000       1.64700000
H       -0.18870000      -3.05560000       2.65330000
H       -0.67460000      -4.07560000       1.30930000
H        0.16780000      -0.87470000       2.97620000
