19
Properties=species:S:1:pos:R:3 gdb_15180=T pbc="F F F"
C        0.01450000       1.49650000      -0.03190000
C       -0.08750000      -0.01420000      -0.12830000
O        0.81650000      -0.45070000      -1.14610000
C        0.85490000      -1.77940000      -1.36810000
N        1.62030000      -2.26130000      -2.24500000
C        1.61690000      -3.66960000      -2.43360000
C        1.83720000      -4.18140000      -3.83880000
C        2.92750000      -4.32190000      -2.81020000
H        1.03370000       1.79700000       0.22530000
H       -0.25040000       1.96090000      -0.98550000
H       -0.66510000       1.87040000       0.73950000
H        0.17540000      -0.48500000       0.82930000
H       -1.11140000      -0.32070000      -0.38400000
H        0.17850000      -2.37110000      -0.73200000
H        0.94410000      -4.25330000      -1.80020000
H        1.29390000      -5.06760000      -4.14740000
H        1.96560000      -3.42970000      -4.60830000
H        3.78440000      -3.66410000      -2.89250000
H        3.13970000      -5.30540000      -2.40590000
