20
Properties=species:S:1:pos:R:3 gdb_120279=T pbc="F F F"
O        0.06410000       1.49580000       0.19410000
C        0.10160000       0.08420000       0.03830000
C       -1.33720000      -0.41920000       0.03920000
C       -1.42160000      -1.93120000      -0.07860000
C       -2.80580000      -2.61860000      -0.33000000
O       -3.93640000      -1.81930000      -0.60620000
C       -2.18270000      -3.22420000      -1.57490000
C       -1.65760000      -2.16770000      -2.45890000
N       -0.82720000      -2.58000000      -1.31200000
H        0.96500000       1.82680000       0.13660000
H        0.59330000      -0.20500000      -0.90210000
H        0.66320000      -0.39300000       0.85830000
H       -1.81510000      -0.10960000       0.97780000
H       -1.89090000       0.07720000      -0.76270000
H       -0.92340000      -2.39350000       0.78040000
H       -3.03140000      -3.36930000       0.43720000
H       -4.28600000      -1.48950000       0.22790000
H       -2.27340000      -4.26000000      -1.88340000
H       -1.23430000      -2.48410000      -3.40710000
H       -2.13300000      -1.19260000      -2.47660000
