21
Properties=species:S:1:pos:R:3 gdb_60185=T pbc="F F F"
C        0.21150000       1.50710000      -0.03420000
C        0.09470000      -0.01830000       0.08440000
C        0.57310000      -0.50320000       1.45900000
C       -1.34560000      -0.45130000      -0.22250000
N       -1.46650000      -1.91150000      -0.28420000
C       -2.01510000      -2.60550000       0.86350000
C       -2.81090000      -2.49050000      -0.40270000
C       -3.98290000      -1.64800000      -0.41720000
N       -4.92290000      -0.97500000      -0.46240000
H        1.24250000       1.83290000       0.13470000
H       -0.09350000       1.85850000      -1.02540000
H       -0.42020000       2.01040000       0.70730000
H        0.73430000      -0.47720000      -0.68060000
H       -0.05710000      -0.09890000       2.26090000
H        0.55780000      -1.59420000       1.53130000
H        1.59930000      -0.17320000       1.64970000
H       -2.03620000      -0.01130000       0.51710000
H       -1.63840000      -0.06130000      -1.20350000
H       -1.56370000      -3.56080000       1.11560000
H       -2.35940000      -2.01370000       1.70970000
H       -2.88000000      -3.34440000      -1.07100000
