19
Properties=species:S:1:pos:R:3 gdb_63708=T pbc="F F F"
C       -0.20340000       1.57240000       0.05050000
C        0.05100000       0.07300000      -0.01610000
C       -1.25240000      -0.69870000      -0.18670000
C        1.17310000      -0.44020000      -0.97320000
C        1.85050000      -1.02450000       0.26800000
C        2.11440000       0.03280000       1.27330000
N        0.75710000      -0.51510000       1.20840000
C        2.40090000      -2.34350000       0.35620000
N        2.85860000      -3.40570000       0.39190000
H        0.71520000       2.15750000       0.14140000
H       -0.71390000       1.90530000      -0.85920000
H       -0.84590000       1.81070000       0.90450000
H       -1.73670000      -0.43230000      -1.13200000
H       -1.06960000      -1.77680000      -0.18120000
H       -1.93930000      -0.47030000       0.63380000
H        0.82210000      -1.19470000      -1.67780000
H        1.76310000       0.30590000      -1.51190000
H        2.63850000      -0.26050000       2.17720000
H        2.32830000       1.04060000       0.92810000
