20
Properties=species:S:1:pos:R:3 gdb_59925=T pbc="F F F"
C       -0.05940000       1.56130000       0.01870000
C        0.02200000       0.02840000       0.03830000
C        0.85840000      -0.45610000       1.23130000
C       -1.39860000      -0.56090000       0.03480000
C       -1.47070000      -2.11100000      -0.09420000
C       -2.85280000      -2.58910000      -0.03550000
C       -3.99530000      -2.95060000       0.03130000
C       -0.81200000      -2.57040000      -1.32940000
N       -0.27540000      -2.91090000      -2.29390000
H        0.94050000       2.00450000      -0.01960000
H       -0.61990000       1.92120000      -0.85010000
H       -0.55690000       1.94120000       0.91920000
H        0.52240000      -0.29420000      -0.88420000
H        0.37730000      -0.19400000       2.18150000
H        1.01590000      -1.53930000       1.22050000
H        1.84820000       0.01060000       1.22170000
H       -1.91820000      -0.29650000       0.96290000
H       -1.97870000      -0.13060000      -0.78760000
H       -0.91590000      -2.55640000       0.74170000
H       -5.00310000      -3.28220000       0.08500000
