16
Properties=species:S:1:pos:R:3 gdb_66730=T pbc="F F F"
C       -0.23760000       1.42690000       0.18750000
C       -0.01020000      -0.03970000       0.05600000
C        0.86470000      -0.93760000      -0.87040000
C        0.88160000      -2.00770000       0.15860000
C        0.01020000      -1.13570000       1.09800000
C       -1.04580000      -1.17370000      -0.00730000
C       -2.50000000      -1.10470000       0.06440000
O       -3.09520000      -0.38250000       0.83670000
N       -0.17450000      -2.02680000      -0.91350000
H        0.64730000       1.93430000       0.58760000
H       -0.48080000       1.87900000      -0.78000000
H       -1.07790000       1.60850000       0.86430000
H        1.51660000      -0.72320000      -1.70860000
H        1.55370000      -2.83900000       0.33020000
H       -0.14820000      -1.08470000       2.16580000
H       -3.03070000      -1.76090000      -0.65950000
