19
Properties=species:S:1:pos:R:3 gdb_94913=T pbc="F F F"
C       -0.09880000       1.52900000      -0.06910000
C       -0.03090000       0.01520000       0.06480000
O        0.57510000      -0.52870000      -1.10860000
C        1.14550000      -1.79320000      -0.79680000
C        1.51540000      -1.73700000       0.67550000
C        2.30950000      -0.51920000       1.12920000
C        3.07680000       0.29110000       0.22640000
C        3.78670000       0.95110000      -0.48640000
C        0.78720000      -0.54120000       1.22150000
H        0.90410000       1.95490000      -0.13620000
H       -0.65650000       1.80090000      -0.96970000
H       -0.61280000       1.96130000       0.79530000
H       -1.05560000      -0.38500000       0.17250000
H        0.42490000      -2.61070000      -0.96200000
H        1.99910000      -1.94020000      -1.46630000
H        1.62330000      -2.66340000       1.22710000
H        2.78930000      -0.65330000       2.09570000
H        4.38930000       1.53970000      -1.13250000
H        0.34660000      -0.53800000       2.21180000
