12
Properties=species:S:1:pos:R:3 gdb_130700=T pbc="F F F"
O       -0.00460000      -0.06850000       0.00300000
C        0.03370000       1.13680000       0.00870000
N       -1.16560000       1.88240000       0.02840000
N       -1.31070000       3.19740000       0.03700000
C       -0.19390000       3.88980000       0.02560000
C        1.07380000       3.19600000       0.00510000
N        1.19810000       1.90920000      -0.00300000
C       -0.24910000       5.30870000       0.03350000
C       -0.22950000       6.51170000       0.03920000
H       -2.02700000       1.35010000       0.03720000
H        1.98490000       3.79420000      -0.00410000
H       -0.23030000       7.57410000       0.04450000
