15
Properties=species:S:1:pos:R:3 gdb_15860=T pbc="F F F"
C       -0.39290000       1.41700000       0.14430000
C        0.08950000      -0.01320000       0.07580000
O        1.30210000      -0.13940000      -0.76120000
C        2.03570000      -0.65700000       0.27670000
N        3.23860000      -0.99740000       0.36260000
C        0.87680000      -0.63940000       1.25660000
C        1.09450000       0.09620000       2.56060000
O        0.33630000       0.90590000       3.02700000
H        0.39360000       2.08700000       0.49810000
H       -0.70920000       1.74270000      -0.85110000
H       -1.23920000       1.49670000       0.83070000
H       -0.68370000      -0.67530000      -0.32360000
H        3.73570000      -0.85450000      -0.51800000
H        0.55570000      -1.65660000       1.51160000
H        2.03270000      -0.19650000       3.07830000
