19
Properties=species:S:1:pos:R:3 gdb_72142=T pbc="F F F"
C       -0.00710000       1.50020000      -0.01990000
C        0.02280000      -0.01040000      -0.04990000
C        0.51990000      -0.75590000      -1.28360000
C        0.27550000      -2.11520000      -0.62500000
O        1.05620000      -2.05170000       0.56190000
C        0.68820000      -0.79190000       1.15160000
C       -0.70300000      -0.92850000       1.81180000
C       -1.26820000      -0.81520000       0.37730000
O       -1.10690000      -2.07760000      -0.29420000
H        0.99650000       1.91500000      -0.16410000
H       -0.64890000       1.89540000      -0.81480000
H       -0.38850000       1.88220000       0.93300000
H       -0.09720000      -0.59930000      -2.17120000
H        1.57400000      -0.57930000      -1.50980000
H        0.49750000      -3.03760000      -1.15810000
H        1.54030000      -0.38820000       1.70170000
H       -0.90530000      -1.85520000       2.35070000
H       -0.95720000      -0.06130000       2.42800000
H       -2.27410000      -0.43380000       0.19220000
