20
Properties=species:S:1:pos:R:3 gdb_128292=T pbc="F F F"
C       -0.00730000       1.42370000      -0.12710000
N       -0.14010000      -0.02470000      -0.13320000
C        0.55990000      -0.73860000      -1.09630000
N        1.11520000      -0.13680000      -2.14670000
N        1.64110000      -1.15260000      -2.88100000
C        2.30260000      -0.85890000      -4.12740000
C        1.43120000      -2.35780000      -2.30180000
C        0.72920000      -2.15120000      -1.13260000
C        0.24080000      -3.15410000      -0.13610000
H        1.03060000       1.76760000      -0.00360000
H       -0.37190000       1.82360000      -1.07650000
H       -0.61870000       1.83180000       0.68170000
H       -0.07380000      -0.44080000       0.78440000
H        2.70990000      -1.78470000      -4.53850000
H        1.60180000      -0.42530000      -4.84860000
H        3.11940000      -0.14840000      -3.96760000
H        1.78640000      -3.27000000      -2.75770000
H        0.70890000      -3.02540000       0.84950000
H       -0.84330000      -3.08070000       0.01430000
H        0.45980000      -4.17450000      -0.46310000
