14
Properties=species:S:1:pos:R:3 gdb_33311=T pbc="F F F"
N        0.15400000      -3.67710000      -0.11150000
C        0.08480000      -2.51800000      -0.07260000
C        0.01210000      -1.15650000      -0.02760000
C       -0.05620000       0.04960000       0.01070000
C       -0.09680000       1.47480000       0.04490000
N       -1.17880000       2.14900000      -0.10210000
C       -0.78560000       3.56330000       0.02890000
C        0.76520000       3.58550000      -0.04090000
N        1.07490000       2.18670000       0.29290000
H       -1.26080000       4.16480000      -0.75000000
H       -1.14830000       3.93490000       0.99600000
H        1.12290000       3.84490000      -1.04640000
H        1.21810000       4.27340000       0.67670000
H        1.94400000       1.79120000      -0.03620000
