15
Properties=species:S:1:pos:R:3 gdb_102016=T pbc="F F F"
C        1.03780000       1.29520000       0.52080000
O        0.49450000       0.04380000       0.11860000
C        0.23660000      -0.86090000       1.17400000
C       -1.26590000      -1.07160000       1.35310000
O       -1.75150000      -1.53210000       2.34930000
C        0.94190000      -2.16090000       0.76180000
O        0.39340000      -3.19180000       0.46970000
C        2.47560000      -2.08370000       0.70070000
O        3.11500000      -1.19170000       1.19160000
H        2.02450000       1.16480000       0.97960000
H        1.13340000       1.89740000      -0.38490000
H        0.37210000       1.81210000       1.22540000
H        0.66560000      -0.52510000       2.12650000
H       -1.86540000      -0.75400000       0.47340000
H        2.93100000      -2.96880000       0.21060000
