16
Properties=species:S:1:pos:R:3 gdb_22621=T pbc="F F F"
O       -0.06200000       1.30530000       0.02130000
N        0.03910000      -0.10140000       0.13180000
C       -1.09060000      -0.65370000       0.15760000
C       -2.59350000      -0.36250000      -0.01590000
C       -2.56390000      -1.62300000      -0.95710000
C       -1.52390000      -2.13180000       0.12450000
O       -0.67010000      -3.20310000      -0.02980000
C       -2.42330000      -2.14800000       1.36900000
C       -3.11160000      -1.00490000       1.28240000
H        0.86340000       1.57170000       0.03740000
H       -2.96780000       0.60350000      -0.33760000
H       -3.49400000      -2.19020000      -1.03620000
H       -2.11230000      -1.42670000      -1.93510000
H        0.03620000      -2.94060000      -0.63010000
H       -2.41020000      -2.91920000       2.12510000
H       -3.83360000      -0.57380000       1.96030000
