18
Properties=species:S:1:pos:R:3 gdb_72674=T pbc="F F F"
C       -0.22360000       1.55400000      -0.00220000
C        0.02200000       0.06690000       0.01420000
C       -1.17900000      -0.89210000       0.15780000
O       -0.52720000      -1.64630000       1.20650000
C        0.62900000      -0.77610000       1.19850000
C        1.69870000      -1.27490000       0.19530000
N        1.11350000      -0.41050000      -0.86520000
C        1.01370000      -0.28170000       2.49260000
C        1.35010000       0.15320000       3.56220000
H        0.71860000       2.09810000       0.09940000
H       -0.68320000       1.85330000      -0.95200000
H       -0.89480000       1.85250000       0.80900000
H       -2.10330000      -0.42560000       0.52280000
H       -1.40930000      -1.50780000      -0.72120000
H        2.73090000      -0.99900000       0.43440000
H        1.63460000      -2.35660000       0.03860000
H        0.80740000      -0.89760000      -1.70110000
H        1.64300000       0.53060000       4.51090000
