21
Properties=species:S:1:pos:R:3 gdb_117545=T pbc="F F F"
C       -0.04320000       1.48180000       0.03100000
C       -0.03060000      -0.02810000       0.19370000
O       -1.31400000      -0.52220000      -0.16020000
C       -1.45430000      -1.92820000      -0.06660000
C       -1.37570000      -2.40350000       1.32010000
C       -1.30400000      -2.76140000       2.46530000
C       -2.80960000      -2.29550000      -0.72210000
C       -2.87720000      -1.82570000      -2.17200000
O       -3.05830000      -3.68540000      -0.59820000
H        0.93420000       1.89870000       0.29160000
H       -0.27460000       1.75870000      -1.00160000
H       -0.79710000       1.93080000       0.68370000
H        0.73540000      -0.48450000      -0.45540000
H        0.20840000      -0.30750000       1.22940000
H       -0.65280000      -2.42050000      -0.65020000
H       -1.25000000      -3.08970000       3.47390000
H       -3.59500000      -1.80770000      -0.13550000
H       -3.84970000      -2.08210000      -2.60040000
H       -2.72540000      -0.74690000      -2.23850000
H       -2.09850000      -2.31470000      -2.77250000
H       -2.45600000      -4.14930000      -1.19070000
