16
Properties=species:S:1:pos:R:3 gdb_27771=T pbc="F F F"
C       -0.01980000       1.52140000       0.02330000
C        0.00080000       0.01880000      -0.00840000
C       -0.01940000      -0.67380000      -1.17610000
C       -0.00010000      -2.11310000      -1.21400000
N       -0.01690000      -2.83140000      -2.25970000
O        0.04170000      -2.74630000       0.05810000
C        0.06110000      -2.03920000       1.19870000
O        0.10010000      -2.82300000       2.28270000
C        0.04310000      -0.69120000       1.24150000
H        0.86760000       1.90950000       0.53690000
H       -0.05050000       1.94530000      -0.98240000
H       -0.89160000       1.88440000       0.58000000
H       -0.05120000      -0.18100000      -2.13880000
H        0.00310000      -3.82350000      -2.02810000
H        0.10550000      -3.74210000       1.98520000
H        0.06060000      -0.18540000       2.19600000
