17
Properties=species:S:1:pos:R:3 gdb_80327=T pbc="F F F"
C       -0.06980000       1.56480000      -0.05520000
C       -0.00620000       0.06980000       0.03850000
C       -0.86840000      -0.78100000       0.96040000
O       -1.67360000      -1.83130000       0.55080000
C        0.61470000      -0.90870000       1.05710000
N        0.99990000      -1.85680000      -0.01820000
C        0.62000000      -0.83060000      -1.04430000
C       -0.21520000      -1.31560000      -2.14780000
N       -0.84810000      -1.67760000      -3.04430000
H        0.90070000       2.00010000      -0.32050000
H       -0.79820000       1.87800000      -0.81220000
H       -0.38040000       2.00040000       0.89950000
H       -1.33760000      -0.19250000       1.74460000
H       -1.07550000      -2.52860000       0.24120000
H        1.22740000      -0.76280000       1.93930000
H        1.99400000      -2.05160000      -0.04160000
H        1.50010000      -0.33990000      -1.47470000
