14
Properties=species:S:1:pos:R:3 gdb_2627=T pbc="F F F"
O       -0.06660000      -0.12490000      -0.12920000
C        0.00710000       1.07510000      -0.11540000
C        1.30150000       1.86160000      -0.13420000
C        1.32990000       2.88480000      -1.27990000
C        2.59980000       3.75740000      -1.23350000
C        2.64060000       4.73940000      -2.31490000
N        2.65390000       5.51000000      -3.17580000
H       -0.91150000       1.70740000      -0.08700000
H        1.37590000       2.39210000       0.82680000
H        2.13550000       1.15650000      -0.19760000
H        1.28390000       2.36820000      -2.24410000
H        0.44790000       3.53280000      -1.22790000
H        2.65940000       4.28980000      -0.27700000
H        3.49510000       3.12860000      -1.29920000
