18
Properties=species:S:1:pos:R:3 gdb_49786=T pbc="F F F"
O       -0.37560000       0.19980000      -0.05270000
C       -0.02720000       1.34690000       0.06190000
C        1.42840000       1.81160000       0.04100000
C        1.69430000       2.51560000      -1.27040000
C        2.25320000       3.71730000      -1.38990000
C        2.73020000       4.56550000      -0.24460000
C        2.34610000       4.02220000       1.11480000
N        0.90470000       3.90670000       1.38250000
C        1.71900000       2.68060000       1.25440000
H       -0.75700000       2.17510000       0.17750000
H        2.04000000       0.90170000       0.09110000
H        1.40320000       1.96580000      -2.16190000
H        2.41180000       4.12730000      -2.38450000
H        3.82500000       4.65320000      -0.29810000
H        2.34540000       5.58880000      -0.35250000
H        2.97570000       4.35200000       1.93830000
H        0.70800000       4.09590000       2.36110000
H        1.92740000       2.12550000       2.16600000
