19
Properties=species:S:1:pos:R:3 gdb_78493=T pbc="F F F"
C       -0.12680000       1.42700000      -0.00090000
C        0.02010000      -0.06430000      -0.03670000
C        0.97250000      -0.90180000      -0.89430000
C        0.11370000      -2.12800000      -0.49100000
C        0.36980000      -2.27150000       1.04260000
O        1.69420000      -2.34360000       1.52130000
C       -0.31980000      -0.93420000       1.21090000
C       -1.05150000      -1.11070000      -0.10670000
O       -2.36900000      -0.98960000      -0.46300000
H        0.75030000       1.90320000       0.45170000
H       -0.24730000       1.83570000      -1.01050000
H       -1.00600000       1.72240000       0.58090000
H        0.86350000      -0.65970000      -1.95550000
H        2.02980000      -0.93540000      -0.61440000
H        0.03360000      -3.00520000      -1.13080000
H       -0.24890000      -3.07990000       1.46070000
H        2.03420000      -3.22580000       1.33850000
H       -0.67400000      -0.46800000       2.12170000
H       -2.89070000      -1.61340000       0.05420000
