20
Properties=species:S:1:pos:R:3 gdb_63478=T pbc="F F F"
C        0.00850000       1.48400000      -0.07440000
C        0.01090000      -0.03170000       0.02610000
C       -1.18390000      -0.67850000      -0.65330000
C        1.35390000      -0.74800000      -0.03800000
C        0.60720000      -0.64720000       1.27190000
O        1.07260000       0.26030000       2.23080000
C        0.00070000      -1.89550000       1.91470000
C        0.99580000      -2.57290000       2.74840000
N        1.81410000      -3.06350000       3.40080000
H        0.84750000       1.92370000       0.46480000
H        0.06330000       1.79170000      -1.12460000
H       -0.91390000       1.90000000       0.34660000
H       -1.24000000      -0.35020000      -1.69710000
H       -1.13150000      -1.77040000      -0.66500000
H       -2.12330000      -0.38910000      -0.16790000
H        1.40390000      -1.71040000      -0.53810000
H        2.24740000      -0.14060000      -0.13590000
H        1.86410000      -0.11370000       2.63720000
H       -0.84640000      -1.60890000       2.54830000
H       -0.36790000      -2.60130000       1.16680000
