15
Properties=species:S:1:pos:R:3 gdb_7575=T pbc="F F F"
N        0.00520000       1.06190000      -0.04410000
H       -0.65190000       0.84430000      -0.78910000
H        0.58650000       0.24080000       0.08760000
H        0.17030000       2.97680000      -0.20640000
C       -0.70350000       1.41260000       1.18570000
C       -1.79600000       0.45390000       1.72520000
O       -0.94590000       0.01150000       2.80380000
C        0.04870000       0.99260000       2.47920000
C       -1.09010000       2.89850000       1.15740000
O       -0.40650000       3.61880000       0.25860000
O       -1.90440000       3.37630000       1.90110000
H       -2.69070000       0.96720000       2.08950000
H       -2.07020000      -0.36610000       1.05030000
H        1.04180000       0.55450000       2.31330000
H        0.11870000       1.78030000       3.23740000
