15
Properties=species:S:1:pos:R:3 gdb_23257=T pbc="F F F"
O       -0.07620000       1.33890000      -0.22320000
N        0.03710000      -0.02940000      -0.08610000
C       -1.07970000      -0.63080000       0.06350000
C       -1.15360000      -2.13830000       0.18560000
N       -2.52640000      -2.47740000       0.63480000
C       -2.87840000      -1.83910000       1.89240000
C       -3.33030000      -1.23360000       0.59830000
C       -2.49130000      -0.08610000       0.12330000
O       -2.87940000       1.01200000      -0.18710000
H        0.84380000       1.61400000      -0.31480000
H       -0.99830000      -2.60790000      -0.79240000
H       -0.41410000      -2.55200000       0.87620000
H       -3.60930000      -2.36880000       2.49530000
H       -2.10250000      -1.32290000       2.45590000
H       -4.36760000      -1.28960000       0.28810000
