21
Properties=species:S:1:pos:R:3 gdb_97765=T pbc="F F F"
C        0.33270000       1.12250000      -0.53500000
C       -0.43010000       0.16870000       0.40230000
C        0.35340000      -0.25170000       1.55870000
C        1.02240000      -0.59050000       2.50230000
C        1.81520000      -0.99450000       3.64880000
C        1.07290000      -1.40460000       4.94870000
C        1.86760000      -2.72170000       4.82420000
C        1.10210000      -4.02690000       4.76030000
O        2.39050000      -2.32390000       3.53050000
H        1.23870000       0.64620000      -0.91890000
H       -0.29580000       1.40590000      -1.38460000
H        0.62860000       2.03260000      -0.00620000
H       -1.35360000       0.65190000       0.74720000
H       -0.74910000      -0.72000000      -0.15740000
H        2.60850000      -0.25570000       3.83050000
H        1.26890000      -0.78690000       5.82580000
H       -0.00320000      -1.52290000       4.81260000
H        2.68570000      -2.79740000       5.55510000
H        0.27690000      -3.95490000       4.04540000
H        1.76140000      -4.84130000       4.44360000
H        0.69450000      -4.28050000       5.74540000
