18
Properties=species:S:1:pos:R:3 gdb_68534=T pbc="F F F"
C       -0.01210000       1.49250000      -0.04660000
C        0.01980000      -0.01340000       0.05320000
O        0.66620000      -0.61110000      -1.09950000
C        0.54990000      -1.97200000      -0.64520000
C        1.14700000      -1.87470000       0.75390000
C        0.81190000      -0.66280000       1.18930000
C       -1.01040000      -2.08320000      -0.52230000
N       -1.57090000      -1.91500000       0.83790000
C       -1.37410000      -0.74160000      -0.04140000
H        1.00260000       1.89280000      -0.11740000
H       -0.56940000       1.80860000      -0.93380000
H       -0.49480000       1.92330000       0.83600000
H        1.00800000      -2.65760000      -1.35640000
H        1.62000000      -2.68170000       1.29530000
H        0.94740000      -0.23500000       2.17300000
H       -1.56840000      -2.61830000      -1.28130000
H       -2.55680000      -2.17590000       0.81510000
H       -2.22740000      -0.18420000      -0.41130000
