19
Properties=species:S:1:pos:R:3 gdb_30920=T pbc="F F F"
C        0.30610000      -0.39390000       1.24040000
N       -0.21720000      -0.14850000      -0.11110000
C        0.59240000      -0.60860000      -1.16520000
C        0.79420000      -1.87270000      -1.68340000
O        0.17650000      -2.98610000      -1.17440000
C        1.68940000      -1.77130000      -2.77730000
C        2.01630000      -0.43420000      -2.89420000
N        1.35260000       0.26870000      -1.93170000
C        1.44910000       1.69320000      -1.69890000
H        0.49140000      -1.45650000       1.45180000
H        1.24840000       0.14760000       1.36690000
H       -0.40670000      -0.00700000       1.97570000
H       -1.14860000      -0.54040000      -0.19110000
H        0.42580000      -3.74200000      -1.71280000
H        2.04800000      -2.57310000      -3.40580000
H        2.67490000       0.06580000      -3.58660000
H        1.44480000       2.22940000      -2.65180000
H        0.58630000       1.99890000      -1.10530000
H        2.36290000       1.95710000      -1.15250000
