25
Properties=species:S:1:pos:R:3 gdb_104882=T pbc="F F F"
C        0.22420000       1.43140000       0.23820000
C        0.08720000      -0.07670000       0.00940000
C        0.59240000      -0.55880000      -1.36100000
C        2.09110000      -0.25540000      -1.59610000
C        2.58450000      -1.38920000      -2.50290000
C        1.89290000      -2.61990000      -1.89820000
C        0.48030000      -2.11180000      -1.52830000
O       -0.07370000       0.12340000      -2.44100000
C       -1.47780000       0.02660000      -2.49960000
H        1.27360000       1.74230000       0.23220000
H       -0.28870000       1.99700000      -0.54460000
H       -0.20190000       1.72040000       1.20380000
H        0.64590000      -0.62450000       0.77830000
H       -0.95980000      -0.37830000       0.13600000
H        2.22110000       0.74240000      -2.01960000
H        2.62510000      -0.29120000      -0.63860000
H        2.23210000      -1.22100000      -3.52680000
H        3.67440000      -1.47580000      -2.53430000
H        1.86780000      -3.48150000      -2.57140000
H        2.43000000      -2.93440000      -0.99490000
H        0.08820000      -2.59600000      -0.62900000
H       -0.21980000      -2.33090000      -2.33910000
H       -1.78230000       0.47870000      -3.44770000
H       -1.83600000      -1.01300000      -2.48470000
H       -1.97510000       0.57010000      -1.68370000
