23
Properties=species:S:1:pos:R:3 gdb_121017=T pbc="F F F"
C       -0.11020000       1.58550000      -0.16160000
C       -0.00760000       0.05900000       0.01610000
C        0.74110000      -0.56950000      -1.14040000
C        1.96140000      -0.97500000      -0.79510000
C        2.24040000      -0.73380000       0.66900000
C        0.83090000      -0.42590000       1.24570000
C        0.80820000       0.48750000       2.47280000
C        1.50450000      -0.11840000       3.68590000
O        1.36670000       0.79340000       4.76650000
H        0.88030000       2.04790000      -0.22580000
H       -0.64410000       1.82460000      -1.08740000
H       -0.65350000       2.05390000       0.66480000
H       -1.03060000      -0.33240000       0.09050000
H        0.32760000      -0.60710000      -2.14320000
H        2.69520000      -1.40350000      -1.46930000
H        2.71280000      -1.59200000       1.16080000
H        2.93170000       0.11230000       0.80330000
H        0.39870000      -1.39230000       1.53810000
H        1.28320000       1.44980000       2.24880000
H       -0.22750000       0.70900000       2.75900000
H        1.04740000      -1.09300000       3.92690000
H        2.56630000      -0.30490000       3.45950000
H        1.82240000       0.42610000       5.52940000
