20
Properties=species:S:1:pos:R:3 gdb_22727=T pbc="F F F"
C       -0.37670000       1.28900000      -0.08170000
C       -0.02190000      -0.19360000      -0.02610000
C        1.17400000      -0.65600000      -0.84560000
C        1.88200000      -1.29220000       0.33530000
C        0.74020000      -0.74000000       1.21290000
C        0.89840000      -0.05600000       2.53830000
C        0.15190000      -1.36820000       2.43810000
N        1.42990000      -0.47130000      -2.07090000
O        2.67250000      -1.03890000      -2.41800000
H        0.49500000       1.91060000       0.14390000
H       -0.73510000       1.55790000      -1.07950000
H       -1.16550000       1.53170000       0.63870000
H       -0.91240000      -0.79650000      -0.24670000
H        1.94370000      -2.38460000       0.27810000
H        2.88610000      -0.90270000       0.53160000
H        1.88140000      -0.05900000       2.99880000
H        0.32300000       0.84470000       2.72650000
H       -0.92750000      -1.34950000       2.55450000
H        0.62600000      -2.26080000       2.83450000
H        2.73940000      -0.82060000      -3.35370000
