14
Properties=species:S:1:pos:R:3 gdb_32312=T pbc="F F F"
C        0.04250000       1.37270000       0.06400000
O        0.09840000      -0.05470000      -0.00990000
C        0.62860000      -0.57150000      -1.11410000
N        1.07490000       0.15450000      -2.07940000
C        1.60230000      -0.50380000      -3.17390000
C        1.65260000      -1.84220000      -3.23980000
O        1.18480000      -2.62000000      -2.22720000
C        0.64040000      -2.06330000      -1.09230000
O        0.23320000      -2.76520000      -0.21310000
H        1.04660000       1.80190000       0.00570000
H       -0.55900000       1.77830000      -0.75420000
H       -0.41640000       1.59470000       1.02690000
H        1.97680000       0.10860000      -3.98410000
H        2.04860000      -2.42580000      -4.05940000
