22
Properties=species:S:1:pos:R:3 gdb_57300=T pbc="F F F"
C       -0.05880000       1.55400000      -0.05350000
C       -0.02610000       0.02380000       0.06580000
C        0.95930000      -0.39050000       1.18370000
C       -1.43790000      -0.51120000       0.38800000
C        0.46540000      -0.58110000      -1.25750000
O        0.88400000       0.10730000      -2.16800000
C        0.43020000      -2.07410000      -1.42390000
C       -0.18810000      -2.57720000      -2.69480000
N        1.25280000      -2.64370000      -2.50110000
H        0.92910000       1.95220000      -0.29540000
H       -0.74220000       1.87390000      -0.84480000
H       -0.39270000       1.99600000       0.89080000
H        0.64120000       0.05030000       2.13430000
H        1.00250000      -1.47500000       1.31940000
H        1.97170000      -0.03390000       0.97000000
H       -2.15450000      -0.23510000      -0.39220000
H       -1.45640000      -1.59940000       0.49490000
H       -1.78890000      -0.08060000       1.33150000
H        0.35080000      -2.68640000      -0.53280000
H       -0.71000000      -3.52990000      -2.68100000
H       -0.58720000      -1.82870000      -3.37370000
H        1.67550000      -1.85040000      -2.98620000
