20
Properties=species:S:1:pos:R:3 gdb_6884=T pbc="F F F"
C       -0.21610000       1.02080000      -1.82940000
C       -0.04170000      -0.16570000      -0.90370000
C        1.32910000      -0.63260000      -0.38720000
C        2.57550000       0.09590000      -0.69740000
O        3.64580000      -0.44500000      -0.85530000
C        0.25380000      -0.06930000       0.56240000
C        0.45720000       1.27670000       1.23700000
C       -0.39690000      -1.09450000       1.47500000
H        0.39930000       1.87930000      -1.55360000
H        0.04080000       0.75000000      -2.85880000
H       -1.26020000       1.35250000      -1.82510000
H       -0.68000000      -1.00330000      -1.17680000
H        1.48800000      -1.70560000      -0.34070000
H        2.48960000       1.20080000      -0.78410000
H        0.89060000       2.03420000       0.58220000
H       -0.50410000       1.66300000       1.59490000
H        1.11560000       1.17590000       2.10670000
H        0.21160000      -1.26920000       2.36950000
H       -1.38250000      -0.74570000       1.80580000
H       -0.53340000      -2.05470000       0.96880000
