15
Properties=species:S:1:pos:R:3 gdb_6351=T pbc="F F F"
C        0.07950000       1.44230000      -0.07380000
N       -0.07700000      -0.00180000      -0.12090000
C       -1.30050000      -0.55990000       0.18530000
O       -2.24750000       0.06650000       0.59480000
N       -1.28500000      -1.96130000       0.03570000
C       -2.42140000      -2.77000000      -0.11120000
N       -2.11360000      -4.11570000       0.06540000
O       -3.51400000      -2.37050000      -0.42390000
H        1.12900000       1.69180000       0.10310000
H       -0.25410000       1.93420000      -0.99640000
H       -0.52670000       1.82250000       0.74860000
H        0.50740000      -0.49920000      -0.77440000
H       -0.38730000      -2.41750000      -0.00400000
H       -1.44270000      -4.35000000       0.78250000
H       -2.94090000      -4.69400000       0.07850000
