16
Properties=species:S:1:pos:R:3 gdb_28058=T pbc="F F F"
C       -0.07380000       1.49600000      -0.00230000
C       -0.05370000       0.01040000       0.01160000
N       -1.05200000      -0.80490000      -0.14990000
C       -0.48630000      -2.06700000      -0.04630000
N       -1.31100000      -3.17270000      -0.17670000
C       -0.91500000      -4.47960000      -0.10120000
N        0.29910000      -4.81700000       0.10450000
C        0.84830000      -1.95680000       0.17640000
O        1.12840000      -0.60680000       0.21390000
H        0.57400000       1.89060000      -0.79190000
H       -1.09460000       1.83710000      -0.17530000
H        0.28300000       1.90300000       0.94950000
H       -2.28130000      -2.96190000      -0.34070000
H       -1.75670000      -5.16770000      -0.23730000
H        0.38290000      -5.83020000       0.12570000
H        1.65200000      -2.65090000       0.31590000
