23
Properties=species:S:1:pos:R:3 gdb_76232=T pbc="F F F"
C        0.75340000       1.74550000      -0.16830000
C        0.23950000       0.30420000      -0.01490000
C        0.63740000      -0.56390000      -1.19880000
C        0.03060000      -0.37510000      -2.55390000
C        1.57450000      -1.44900000      -0.85600000
C        1.94240000      -1.36110000       0.60080000
C        0.80550000      -0.48790000       1.20490000
C        1.25390000       0.35060000       2.40120000
O       -0.28710000      -1.32890000       1.60040000
H        1.84440000       1.77530000      -0.26000000
H        0.33600000       2.20680000      -1.06870000
H        0.46360000       2.36960000       0.68220000
H       -0.85100000       0.33860000       0.09930000
H        0.19380000       0.64040000      -2.93600000
H        0.44750000      -1.07760000      -3.28100000
H       -1.05650000      -0.52390000      -2.52140000
H        2.03500000      -2.15670000      -1.53800000
H        1.98290000      -2.33880000       1.09910000
H        2.93010000      -0.90040000       0.74520000
H        2.05820000       1.04430000       2.14080000
H        0.41420000       0.92280000       2.80650000
H        1.62980000      -0.30370000       3.19740000
H        0.03360000      -1.91820000       2.29160000
