17
Properties=species:S:1:pos:R:3 gdb_83898=T pbc="F F F"
C       -0.01260000       1.56070000      -0.06920000
C        0.12570000       0.05840000      -0.05950000
C        1.45820000      -0.64300000      -0.16870000
O        2.60770000       0.13120000       0.07010000
C        2.76520000       0.14170000       1.48000000
O        1.46330000       0.10840000       2.03370000
C        0.70300000      -0.69420000       1.14450000
C        0.08650000      -1.85910000       1.69600000
C       -0.45290000      -2.83440000       2.14820000
H       -0.04890000       1.93110000      -1.09880000
H       -0.93450000       1.86640000       0.43470000
H        0.82670000       2.03990000       0.43510000
H       -0.68310000      -0.48790000      -0.53920000
H        1.60390000      -1.51150000      -0.80180000
H        3.34650000      -0.73660000       1.80620000
H        3.25800000       1.06970000       1.78050000
H       -0.92410000      -3.69530000       2.55370000
