20
Properties=species:S:1:pos:R:3 gdb_111252=T pbc="F F F"
O       -0.06560000       1.33980000       0.31090000
C        0.01790000       0.01460000      -0.17040000
C       -1.35510000      -0.64650000      -0.10250000
C       -1.46600000      -2.18060000       0.04630000
C       -1.33510000      -1.91700000       1.56220000
N       -1.90610000      -0.53610000       1.31150000
C       -3.37300000      -0.67400000       1.20790000
C       -3.78710000      -2.03250000       0.57130000
O       -2.78800000      -2.57520000      -0.29670000
H       -0.61450000       1.27440000       1.10670000
H        0.35960000       0.05870000      -1.21020000
H        0.76520000      -0.56980000       0.39160000
H       -2.01830000      -0.20860000      -0.85450000
H       -0.78390000      -2.85560000      -0.47730000
H       -1.89870000      -2.54460000       2.25560000
H       -0.30260000      -1.84500000       1.90690000
H       -3.81700000      -0.59480000       2.20680000
H       -3.73970000       0.17170000       0.61800000
H       -4.00370000      -2.76030000       1.36520000
H       -4.69810000      -1.92670000      -0.02490000
