20
Properties=species:S:1:pos:R:3 gdb_90806=T pbc="F F F"
C       -0.50960000       1.46500000       0.08650000
C        0.02840000       0.03440000      -0.03040000
C        0.79340000      -0.18060000      -1.35970000
N        2.09330000      -0.84060000      -1.25370000
C        3.05620000      -0.47450000      -0.24130000
C        2.41990000      -0.16550000       1.15390000
C        1.79000000      -1.54930000       1.15850000
C        0.91820000      -0.32520000       1.14380000
C        2.42060000      -1.82850000      -0.24500000
H        0.31340000       2.18840000       0.10570000
H       -1.15550000       1.71440000      -0.76250000
H       -1.09570000       1.59830000       1.00270000
H       -0.82860000      -0.65130000      -0.00270000
H        0.18910000      -0.76480000      -2.06140000
H        0.98480000       0.78550000      -1.84160000
H        4.04920000      -0.15690000      -0.53990000
H        2.95580000       0.32770000       1.95400000
H        1.77840000      -2.27920000       1.95740000
H        0.47070000      -0.11550000       2.11390000
H        2.80880000      -2.79160000      -0.55670000
