16
Properties=species:S:1:pos:R:3 gdb_126827=T pbc="F F F"
C        0.02860000       1.54160000       0.06540000
C       -0.03180000       0.01770000      -0.04230000
N        0.68860000      -0.48160000      -1.21900000
N       -0.04700000      -0.70590000      -2.31720000
C        0.58330000      -1.13660000      -3.37160000
N        1.92590000      -1.38750000      -3.46820000
C        2.62740000      -1.16220000      -2.40250000
C        2.07460000      -0.65630000      -1.14460000
O        2.71090000      -0.40720000      -0.13430000
H        1.06310000       1.87590000       0.17160000
H       -0.41130000       2.01110000      -0.81910000
H       -0.53180000       1.87120000       0.94510000
H        0.43320000      -0.44460000       0.83080000
H       -1.05880000      -0.33570000      -0.14330000
H       -0.02140000      -1.31680000      -4.25180000
H        3.69970000      -1.34620000      -2.41870000
