20
Properties=species:S:1:pos:R:3 gdb_106472=T pbc="F F F"
C        0.08750000       1.53630000       0.19270000
C       -0.08800000       0.03000000      -0.03760000
C        0.66490000      -0.48940000      -1.24080000
C        2.22850000      -0.37690000      -1.43360000
C        1.93140000      -1.44420000      -2.50530000
C        0.86490000      -2.02350000      -1.55530000
O        1.11800000      -0.70130000      -3.46520000
C        0.24010000      -0.04690000      -2.62750000
N       -0.69690000       0.72430000      -2.96600000
H        1.14060000       1.79410000       0.35010000
H       -0.28080000       2.10040000      -0.66710000
H       -0.46790000       1.85720000       1.07900000
H        0.24390000      -0.52420000       0.84930000
H       -1.15220000      -0.19750000      -0.17180000
H        2.64470000       0.57310000      -1.77510000
H        2.77920000      -0.76390000      -0.57380000
H        2.67990000      -2.02320000      -3.04080000
H        1.28330000      -2.56600000      -0.70530000
H        0.03560000      -2.57280000      -2.00640000
H       -0.74040000       0.81750000      -3.98260000
