21
Properties=species:S:1:pos:R:3 gdb_119565=T pbc="F F F"
C       -0.05570000       1.53240000      -0.22680000
C        0.13130000       0.03460000      -0.09960000
O        1.29990000      -0.46820000      -0.81610000
C        1.72280000      -1.17490000       0.35090000
C        2.06360000      -0.22120000       1.45160000
C        0.61250000      -0.61540000       1.20880000
C       -0.26740000      -1.24550000       2.25040000
C       -0.87860000      -0.22830000       3.21240000
O       -1.67120000      -0.94270000       4.14750000
H        0.78910000       2.08160000       0.19700000
H       -0.14950000       1.81090000      -1.28140000
H       -0.97070000       1.84540000       0.28800000
H       -0.75920000      -0.49210000      -0.47120000
H        2.11950000      -2.17640000       0.22680000
H        2.49620000      -0.66790000       2.34240000
H        2.44240000       0.76610000       1.20400000
H       -1.08040000      -1.80750000       1.77390000
H        0.30810000      -1.96900000       2.83970000
H       -0.07390000       0.33430000       3.71160000
H       -1.48500000       0.50090000       2.65050000
H       -2.05680000      -0.31140000       4.76160000
