15
Properties=species:S:1:pos:R:3 gdb_82705=T pbc="F F F"
O        0.38810000       1.35590000       0.08130000
C        0.08400000      -0.00050000       0.01030000
C        0.16940000      -0.83100000       1.32370000
O       -0.69700000      -0.05730000       2.21730000
C       -1.78710000      -0.56790000       1.45850000
C       -1.05090000      -1.68520000       0.85040000
C       -1.37610000      -0.46970000      -0.04920000
C       -2.39960000      -0.39770000      -1.09660000
O       -3.42500000      -1.04350000      -1.07820000
H        0.00080000       1.66930000       0.91020000
H        0.67910000      -0.44780000      -0.78980000
H        1.10000000      -1.15160000       1.78440000
H       -2.80620000      -0.43860000       1.79450000
H       -1.25340000      -2.73290000       0.68820000
H       -2.17780000       0.31150000      -1.92350000
