16
Properties=species:S:1:pos:R:3 gdb_131479=T pbc="F F F"
O       -0.45380000       0.37680000       1.95040000
C       -0.05790000      -0.08510000       0.68850000
C       -0.65010000      -1.38040000       0.25490000
C       -1.06720000      -0.09340000      -0.45380000
C       -2.41590000       0.46640000      -0.29070000
C       -3.31580000       0.98710000      -1.19730000
N       -4.44270000       1.37490000      -0.53840000
N       -4.30040000       1.12790000       0.73140000
N       -3.08060000       0.57460000       0.88900000
H       -0.36630000       1.33700000       1.95820000
H        0.98040000       0.12070000       0.43500000
H       -0.03090000      -2.08720000      -0.28470000
H       -1.38080000      -1.82660000       0.92070000
H       -0.66070000       0.05590000      -1.44840000
H       -3.21560000       1.09690000      -2.26520000
H       -2.72430000       0.35130000       1.80590000
