17
Properties=species:S:1:pos:R:3 gdb_127231=T pbc="F F F"
C       -0.03770000       1.42070000       0.05600000
N       -0.05000000      -0.02570000      -0.02000000
C        0.18620000      -0.80320000      -1.09070000
C        0.06010000      -2.12310000      -0.67390000
C       -0.26200000      -2.01030000       0.70180000
N       -0.32830000      -0.74570000       1.09550000
C        0.23740000      -3.30470000      -1.53060000
C        0.05550000      -4.66620000      -0.88080000
O        0.51790000      -3.19430000      -2.70990000
H        0.20340000       1.82440000      -0.92810000
H       -1.01800000       1.78710000       0.37060000
H        0.71170000       1.75080000       0.77960000
H        0.42370000      -0.40040000      -2.06200000
H       -0.44700000      -2.79940000       1.41610000
H        0.76400000      -4.79660000      -0.05530000
H       -0.95170000      -4.76060000      -0.46000000
H        0.21500000      -5.44570000      -1.62620000
