16
Properties=species:S:1:pos:R:3 gdb_28362=T pbc="F F F"
C       -0.03120000       1.50870000       0.02040000
C       -0.00790000       0.01050000      -0.01100000
C       -0.03350000      -0.71490000      -1.15730000
N       -0.01350000      -2.09470000      -1.23920000
C        0.03350000      -2.70670000      -0.10570000
O        0.05790000      -4.04630000      -0.03070000
N        0.06300000      -2.09920000       1.10600000
C        0.04530000      -0.69510000       1.26370000
N        0.07250000      -0.09250000       2.39430000
H        0.85650000       1.90230000       0.52690000
H       -0.07450000       1.92090000      -0.99110000
H       -0.89220000       1.87350000       0.59040000
H       -0.07320000      -0.20790000      -2.11720000
H        0.03330000      -4.36110000      -0.94530000
H        0.09950000      -2.68160000       1.93060000
H        0.10870000      -0.74540000       3.17820000
