16
Properties=species:S:1:pos:R:3 gdb_49328=T pbc="F F F"
O       -0.67480000       0.75660000       0.62110000
C        0.12490000       1.03980000      -0.23440000
C        1.30210000       1.96140000      -0.06330000
C        1.15480000       3.35300000      -0.79490000
O        0.97720000       3.71170000      -1.92470000
N        1.31650000       4.00100000       0.39760000
C        1.46270000       2.80250000       1.21030000
C        0.91430000       2.59860000       2.58160000
C        2.41810000       2.62390000       2.34760000
H        0.03880000       0.62840000      -1.26410000
H        2.21290000       1.45500000      -0.40070000
H        1.33200000       4.98550000       0.62140000
H        0.46980000       3.45600000       3.07680000
H        0.42830000       1.65490000       2.79290000
H        2.96980000       1.69190000       2.41540000
H        2.97010000       3.49380000       2.68870000
