21
Properties=species:S:1:pos:R:3 gdb_87727=T pbc="F F F"
C       -0.14300000       1.54330000       0.28500000
C       -0.06570000       0.03480000       0.21540000
C        1.14400000      -0.65210000      -0.35740000
C        0.85810000      -0.76340000       1.12770000
C        1.77220000      -0.14110000       2.19320000
C        1.58000000      -1.00570000       3.47500000
O        0.88870000      -0.33310000       4.52980000
C        0.81360000      -2.20860000       2.97660000
C        0.39500000      -2.04410000       1.72010000
H        0.84230000       1.98970000       0.44970000
H       -0.53700000       1.95430000      -0.65110000
H       -0.79980000       1.87780000       1.09630000
H       -1.01900000      -0.44620000       0.00580000
H        1.00830000      -1.53300000      -0.97690000
H        1.98400000      -0.02820000      -0.64950000
H        2.81660000      -0.17660000       1.86720000
H        1.53710000       0.90190000       2.42020000
H        2.54390000      -1.27050000       3.92150000
H       -0.02980000      -0.24340000       4.25140000
H        0.59110000      -3.05350000       3.61780000
H       -0.21710000      -2.74540000       1.16100000
