17
Properties=species:S:1:pos:R:3 gdb_1313=T pbc="F F F"
C       -0.13190000       1.53510000       0.06300000
C       -0.00290000       0.01740000       0.05620000
C       -1.30360000      -0.67580000      -0.31840000
O        1.08070000      -0.40670000      -0.83030000
C        1.91910000      -0.78000000       0.27800000
C        0.75930000      -0.57480000       1.27460000
O        0.93930000       0.32640000       2.33950000
H        0.81270000       2.00850000       0.33700000
H       -0.42140000       1.87940000      -0.93470000
H       -0.89270000       1.85840000       0.77960000
H       -1.64280000      -0.34420000      -1.30510000
H       -1.16930000      -1.76080000      -0.35240000
H       -2.08810000      -0.44210000       0.40950000
H        2.32120000      -1.79440000       0.16950000
H        2.74570000      -0.07400000       0.43740000
H        0.31750000      -1.51820000       1.62040000
H        1.36290000      -0.13880000       3.06690000
