18
Properties=species:S:1:pos:R:3 gdb_122764=T pbc="F F F"
C       -0.00900000       1.51030000       0.00970000
C       -0.04270000      -0.02000000       0.00230000
C       -1.46260000      -0.56500000       0.01300000
O       -1.40090000      -1.98440000       0.00520000
C       -2.64690000      -2.58980000       0.01380000
C       -2.48980000      -4.09710000       0.00410000
O       -1.45210000      -4.69890000      -0.00910000
C       -3.78900000      -4.81280000       0.01280000
N       -4.80700000      -5.36080000       0.01980000
H        1.02110000       1.87680000       0.00190000
H       -0.51570000       1.92660000      -0.86780000
H       -0.49910000       1.91770000       0.90080000
H        0.47200000      -0.40940000      -0.88300000
H        0.48860000      -0.41830000       0.87380000
H       -2.00600000      -0.21670000       0.90740000
H       -2.02280000      -0.20770000      -0.86740000
H       -3.25050000      -2.32420000       0.90330000
H       -3.26740000      -2.31460000      -0.86100000
