21
Properties=species:S:1:pos:R:3 gdb_120515=T pbc="F F F"
C       -0.27720000       1.66390000      -0.48270000
C       -0.09890000       0.20530000      -0.05270000
C       -1.42890000      -0.54510000       0.08980000
C       -1.26660000      -1.99830000       0.53280000
C       -2.56780000      -2.84440000       0.48850000
C       -1.99340000      -3.47830000      -0.81310000
N       -0.66580000      -2.93110000      -0.46270000
C       -2.04930000      -4.93580000      -0.94490000
N       -2.11370000      -6.08500000      -1.04980000
H        0.68720000       2.17260000      -0.57390000
H       -0.78350000       1.73300000      -1.45190000
H       -0.87990000       2.21920000       0.24430000
H        0.54220000      -0.30980000      -0.78080000
H        0.43930000       0.16440000       0.90300000
H       -2.05790000      -0.02940000       0.82880000
H       -1.98020000      -0.50720000      -0.86110000
H       -0.73060000      -2.02710000       1.48910000
H       -2.65220000      -3.56320000       1.30320000
H       -3.50620000      -2.30030000       0.37710000
H       -2.44940000      -3.04320000      -1.71260000
H       -0.15810000      -2.50410000      -1.23040000
