17
Properties=species:S:1:pos:R:3 gdb_46418=T pbc="F F F"
O       -0.21170000      -0.00640000      -0.16420000
C       -0.08290000       1.16980000      -0.02330000
C       -0.98100000       2.35130000       0.36440000
O        0.15690000       3.23180000       0.26360000
C        1.07560000       2.17620000      -0.12570000
C        2.24170000       1.99880000       0.83440000
C        3.14000000       3.25270000       0.87410000
C        4.25160000       3.11550000       1.80570000
C        5.15880000       2.97480000       2.58140000
H       -1.77360000       2.58840000      -0.35660000
H       -1.40820000       2.31220000       1.37420000
H        1.43270000       2.32540000      -1.15570000
H        1.86320000       1.79110000       1.84070000
H        2.82390000       1.12610000       0.51940000
H        3.52590000       3.45770000      -0.13330000
H        2.52470000       4.11710000       1.14980000
H        5.96490000       2.86410000       3.26350000
