20
Properties=species:S:1:pos:R:3 gdb_84855=T pbc="F F F"
C       -0.14190000       1.56570000      -0.03300000
C        0.06190000       0.04930000      -0.03870000
N        0.73510000      -0.34600000      -1.27700000
C        1.50530000      -1.34670000      -1.25980000
O        1.86580000      -2.16360000      -0.23980000
C        1.42750000      -1.85580000       1.09240000
C        2.61600000      -1.34470000       1.93980000
C        2.17040000       0.11030000       1.62440000
C        0.77610000      -0.45490000       1.21300000
H        0.82010000       2.08670000      -0.00610000
H       -0.66550000       1.87550000      -0.94090000
H       -0.72790000       1.87910000       0.83760000
H       -0.93290000      -0.42180000      -0.06420000
H        2.00050000      -1.67940000      -2.17120000
H        0.87150000      -2.72690000       1.44750000
H        2.49010000      -1.59830000       2.99590000
H        3.60390000      -1.66840000       1.60710000
H        2.19120000       0.83350000       2.44160000
H        2.71120000       0.52990000       0.77210000
H        0.09790000      -0.43950000       2.07190000
