18
Properties=species:S:1:pos:R:3 gdb_34330=T pbc="F F F"
C       -0.00310000      -1.18490000       0.05940000
C       -0.00930000       0.01780000       0.03940000
C        0.00380000       1.45520000      -0.01740000
C       -0.42710000       2.13230000      -1.35970000
C        0.89260000       2.96860000      -1.36280000
C        1.31350000       2.30480000      -0.02260000
C        0.81430000       2.93500000       1.28360000
C       -0.52450000       3.53830000       1.17630000
N       -0.44340000       2.07140000       1.31840000
H       -0.00460000      -2.24630000       0.08790000
H       -0.48610000       1.40710000      -2.17270000
H       -1.36910000       2.68460000      -1.32490000
H        1.55590000       2.71620000      -2.19250000
H        0.77740000       4.05500000      -1.33340000
H        2.29070000       1.82930000       0.03530000
H        1.42910000       3.05370000       2.17040000
H       -0.93080000       4.00040000       2.07150000
H       -0.87190000       3.99360000       0.25520000
