18
Properties=species:S:1:pos:R:3 gdb_37677=T pbc="F F F"
C       -0.00740000       1.57590000       0.09210000
C        1.46120000       1.93130000      -0.03510000
C        2.45810000       1.09940000       0.69300000
C        2.02940000      -0.13580000       1.45240000
C        0.60860000      -0.64120000       1.26560000
C        1.74780000      -1.23740000       0.45960000
C        1.34030000      -0.34670000      -0.74320000
C        0.02480000       0.05260000       0.03170000
N        2.21520000       0.86170000      -0.75430000
H       -0.45460000       1.95110000       1.01960000
H       -0.56570000       2.00500000      -0.74780000
H        1.72430000       2.94990000      -0.31000000
H        3.42450000       1.52710000       0.94820000
H        2.52000000      -0.37710000       2.38740000
H        0.04700000      -1.07560000       2.08490000
H        2.18060000      -2.22860000       0.46270000
H        1.25150000      -0.78740000      -1.73410000
H       -0.88400000      -0.42220000      -0.34030000
