20
Properties=species:S:1:pos:R:3 gdb_104635=T pbc="F F F"
C       -0.00540000       1.49960000       0.08150000
N       -0.13920000       0.05890000      -0.12900000
C        0.66730000      -0.48310000      -1.19770000
C        2.24130000      -0.54610000      -1.09160000
N        2.17790000      -1.92620000      -1.58880000
C        3.10140000      -2.90650000      -1.06670000
C        0.75390000      -2.03800000      -1.24960000
C        0.24500000       0.08820000      -2.48150000
N       -0.07540000       0.55070000      -3.49080000
H        1.02580000       1.83110000       0.28810000
H       -0.36040000       2.03100000      -0.80620000
H       -0.63630000       1.79340000       0.92400000
H        0.07860000      -0.44210000       0.72510000
H        2.84130000       0.14090000      -1.69500000
H        2.54090000      -0.46430000      -0.03160000
H        3.06790000      -2.99070000       0.03680000
H        2.87570000      -3.89050000      -1.49040000
H        4.12350000      -2.64320000      -1.35700000
H        0.56420000      -2.45450000      -0.24420000
H        0.13110000      -2.56300000      -1.97860000
