21
Properties=species:S:1:pos:R:3 gdb_26383=T pbc="F F F"
C       -0.01250000       1.55010000       0.00320000
C        0.04380000       0.02040000       0.08310000
C        0.74640000      -0.44410000       1.36440000
C       -1.37470000      -0.58170000      -0.03930000
C       -1.38010000      -2.07180000      -0.17980000
N       -0.85250000      -2.75490000      -1.17500000
C       -1.07940000      -4.08040000      -0.88490000
C       -1.75320000      -4.20720000       0.29920000
N       -1.93850000      -2.91420000       0.74130000
H        0.99180000       1.98350000       0.04900000
H       -0.48030000       1.88540000      -0.92850000
H       -0.59080000       1.96900000       0.83630000
H        0.61510000      -0.35390000      -0.77500000
H        0.80900000      -1.53530000       1.41420000
H        1.76580000      -0.04880000       1.41800000
H        0.21010000      -0.09390000       2.25580000
H       -1.97400000      -0.29100000       0.83410000
H       -1.86820000      -0.14680000      -0.91640000
H       -0.74700000      -4.86590000      -1.54660000
H       -2.11150000      -5.05840000       0.85360000
H       -2.40300000      -2.63810000       1.59010000
