16
Properties=species:S:1:pos:R:3 gdb_31598=T pbc="F F F"
N       -0.04750000       1.44460000      -0.20170000
C        0.05810000       0.05300000      -0.03620000
C       -0.95230000      -0.83280000       0.18020000
O       -2.26240000      -0.63070000       0.43670000
O       -0.48540000      -2.11810000       0.19340000
C        0.86850000      -2.04640000      -0.01060000
C        1.59630000      -3.34280000      -0.00270000
O        1.66480000      -3.95110000       1.28480000
C        1.24610000      -0.74800000      -0.15210000
H        0.66730000       1.94620000       0.31230000
H       -0.95590000       1.77870000       0.09840000
H       -2.79870000      -0.98730000      -0.28320000
H        1.13920000      -4.03150000      -0.73100000
H        2.62940000      -3.16860000      -0.31510000
H        0.76110000      -4.02560000       1.60920000
H        2.25010000      -0.39300000      -0.32920000
