19
Properties=species:S:1:pos:R:3 gdb_74912=T pbc="F F F"
C        0.08590000       1.46010000       0.04990000
C       -0.02990000      -0.02810000      -0.02760000
C       -0.13160000      -0.80730000      -1.11170000
C       -0.04550000      -2.26200000      -0.69750000
C        1.42640000      -2.51920000      -0.17260000
C        0.93300000      -2.12800000       1.21260000
O        1.56750000      -2.40300000       2.40880000
C       -0.51690000      -2.28340000       0.79610000
C       -0.00630000      -0.91230000       1.18370000
H        1.04280000       1.76120000       0.49510000
H        0.01290000       1.92040000      -0.93920000
H       -0.70000000       1.88940000       0.68440000
H       -0.10880000      -0.47290000      -2.14230000
H       -0.44200000      -3.00170000      -1.39120000
H        1.66280000      -3.58840000      -0.19820000
H        2.23780000      -1.94890000      -0.63740000
H        1.74590000      -3.34960000       2.44350000
H       -1.36100000      -2.79730000       1.23970000
H       -0.23670000      -0.52700000       2.17120000
