17
Properties=species:S:1:pos:R:3 gdb_71424=T pbc="F F F"
O       -0.03750000       1.34370000      -0.02370000
C        0.04940000      -0.03150000      -0.03980000
C        0.87530000      -0.90460000      -0.98160000
C       -0.04960000      -2.06090000      -0.50560000
C       -1.11220000      -0.98140000      -0.05390000
C       -0.28060000      -0.87660000       1.20950000
C        0.34350000      -2.26450000       1.00110000
C       -0.37560000      -3.34020000       1.65950000
C       -0.97080000      -4.23500000       2.19940000
H        0.67900000       1.68990000       0.51990000
H        0.68240000      -0.63980000      -2.02470000
H        1.95400000      -1.01410000      -0.81540000
H       -0.24350000      -2.92390000      -1.13640000
H       -2.16680000      -0.84680000      -0.23900000
H       -0.55660000      -0.40060000       2.14170000
H        1.42020000      -2.35990000       1.19230000
H       -1.49460000      -5.02410000       2.67920000
