18
Properties=species:S:1:pos:R:3 gdb_114300=T pbc="F F F"
O       -0.18680000       1.54310000      -0.07220000
C        0.03570000       0.15280000       0.12980000
C       -1.30930000      -0.52950000      -0.04160000
C       -1.96600000      -0.65050000      -1.45930000
C       -2.18710000      -2.14720000      -1.19910000
C       -0.86600000      -2.86030000      -1.01250000
C        0.31980000      -2.52650000      -1.75670000
N        1.26830000      -2.27200000      -2.36930000
C       -1.44910000      -2.04760000       0.13270000
H        0.66820000       1.97540000      -0.15170000
H        0.76900000      -0.23980000      -0.58470000
H        0.41820000      -0.04830000       1.14500000
H       -2.01780000      -0.03520000       0.63040000
H       -2.89250000      -0.08250000      -1.54690000
H       -1.32460000      -0.41300000      -2.31230000
H       -3.07370000      -2.71670000      -1.44870000
H       -0.96910000      -3.93030000      -0.85380000
H       -1.65620000      -2.55410000       1.06850000
