19
Properties=species:S:1:pos:R:3 gdb_32772=T pbc="F F F"
N        0.09460000       1.46710000      -0.05740000
C        0.05650000       0.05630000      -0.00390000
C       -1.07670000      -0.73700000      -0.01830000
C       -2.52410000      -0.37410000      -0.06150000
C       -3.05700000      -0.15500000      -1.48170000
O       -4.43330000       0.17920000      -1.38160000
N       -0.63980000      -2.05240000      -0.04940000
C        0.72470000      -2.09950000      -0.03620000
C        1.19170000      -0.80480000      -0.01280000
H        0.88040000       1.83930000       0.46230000
H       -0.75220000       1.88600000       0.30950000
H       -3.13410000      -1.14890000       0.42030000
H       -2.70330000       0.54470000       0.51140000
H       -2.47780000       0.64530000      -1.96630000
H       -2.90620000      -1.07160000      -2.07420000
H       -4.76400000       0.36200000      -2.26570000
H       -1.24810000      -2.85140000      -0.03070000
H        1.25250000      -3.03940000      -0.03730000
H        2.22760000      -0.50050000      -0.00870000
