13
Properties=species:S:1:pos:R:3 gdb_133376=T pbc="F F F"
N        0.00090000       1.30040000       0.10430000
C       -0.02800000      -0.04680000       0.03560000
N       -1.15930000      -0.68840000       0.01920000
N       -1.02980000      -2.06070000      -0.01220000
C        0.15810000      -2.67180000      -0.02450000
F        0.06860000      -3.99230000      -0.04130000
N        1.30690000      -2.10610000      -0.02330000
C        1.30610000      -0.71820000      -0.00580000
N        2.34360000       0.03020000      -0.02900000
H        0.90630000       1.72400000      -0.03040000
H       -0.84480000       1.82840000      -0.02180000
H       -1.89200000      -2.57990000      -0.01570000
H        3.18680000      -0.54350000      -0.06320000
