18
Properties=species:S:1:pos:R:3 gdb_62485=T pbc="F F F"
C       -0.03660000       1.55390000       0.00360000
C       -0.02510000       0.01470000       0.00450000
C       -1.45930000      -0.54420000       0.00150000
C        0.76530000      -0.52030000      -1.18970000
O        0.51220000      -0.34760000      -2.35210000
C        1.96310000      -1.33420000      -0.67260000
N        1.82060000      -1.23880000       0.76260000
C        0.75130000      -0.51330000       1.21920000
O        0.47500000      -0.32430000       2.38350000
H        0.97720000       1.96660000      -0.00500000
H       -0.56340000       1.92090000      -0.88100000
H       -0.54080000       1.91280000       0.90440000
H       -1.99410000      -0.18970000      -0.88350000
H       -1.46750000      -1.63870000      -0.00820000
H       -1.98040000      -0.20940000       0.90190000
H        1.90240000      -2.36390000      -1.04820000
H        2.89810000      -0.89760000      -1.04700000
H        2.45450000      -1.66820000       1.41830000
