20
Properties=species:S:1:pos:R:3 gdb_109449=T pbc="F F F"
C        0.06360000       1.53360000       0.10260000
C        0.00870000       0.01950000      -0.13000000
N        0.72830000      -0.42220000      -1.30280000
C        0.27320000      -0.84180000      -2.53200000
O       -0.83380000      -0.89240000      -3.00270000
C        1.71020000      -1.20500000      -2.98120000
C        2.12190000      -0.74980000      -1.57260000
C        3.33130000       0.01610000      -1.14230000
C        3.07910000      -1.39490000      -0.62160000
H        1.08900000       1.87950000       0.26320000
H       -0.34490000       2.06850000      -0.75920000
H       -0.52490000       1.80200000       0.98580000
H        0.39330000      -0.51640000       0.74750000
H       -1.02870000      -0.29940000      -0.27450000
H        1.85600000      -2.26500000      -3.19850000
H        2.09170000      -0.59890000      -3.80540000
H        4.12670000       0.16640000      -1.86520000
H        3.20740000       0.83490000      -0.44170000
H        2.78590000      -1.49590000       0.41840000
H        3.70220000      -2.20440000      -0.98740000
