19
Properties=species:S:1:pos:R:3 gdb_71822=T pbc="F F F"
C        0.05000000       1.53550000       0.08410000
C       -0.04910000       0.03900000      -0.04170000
C        0.44610000      -0.66450000      -1.33680000
C       -0.77520000      -1.66450000      -1.25190000
C       -0.44670000      -2.99240000      -0.61670000
C       -0.45580000      -2.92420000       0.71680000
C       -0.77900000      -1.52240000       1.16930000
O        0.40030000      -0.64180000       1.16090000
C       -1.34590000      -0.81190000      -0.07690000
H        1.09850000       1.83810000       0.18640000
H       -0.36210000       2.03180000      -0.80080000
H       -0.49040000       1.88670000       0.96850000
H        0.37660000      -0.00590000      -2.20800000
H        1.44420000      -1.10400000      -1.28960000
H       -1.36450000      -1.73500000      -2.16770000
H       -0.16770000      -3.86500000      -1.19820000
H       -0.19110000      -3.72470000       1.39740000
H       -1.30120000      -1.44010000       2.12660000
H       -2.36480000      -0.43000000      -0.09930000
