13
Properties=species:S:1:pos:R:3 gdb_4987=T pbc="F F F"
N       -0.05290000       1.37490000      -0.11410000
C       -0.01700000       0.01240000      -0.05360000
N       -1.16300000      -0.66290000       0.02420000
C       -1.08200000      -1.99700000       0.03550000
N        0.01660000      -2.73830000      -0.01410000
C        1.16980000      -2.04930000      -0.08300000
C        1.21820000      -0.67340000      -0.10700000
O        2.35370000       0.08520000      -0.17090000
H        0.79520000       1.87790000       0.08560000
H       -0.92500000       1.80770000       0.14370000
H       -2.02810000      -2.52920000       0.09550000
H        2.09180000      -2.63080000      -0.11900000
H        3.12460000      -0.49250000      -0.18280000
