21
Properties=species:S:1:pos:R:3 gdb_80747=T pbc="F F F"
C       -0.41420000       1.37430000      -0.15950000
C        0.00570000      -0.08260000      -0.00400000
C        1.38940000      -0.62750000      -0.29990000
C        2.56370000       0.33560000      -0.37990000
C        2.51290000       1.19290000       0.91830000
C        1.71010000       0.33640000       1.94030000
C        0.86740000      -0.62680000       1.11870000
C        3.89990000       1.50520000       1.42850000
O        4.35480000       2.60640000       1.59590000
H        0.22210000       1.92230000      -0.86190000
H       -1.43550000       1.43150000      -0.54560000
H       -0.40240000       1.91820000       0.79060000
H       -0.77590000      -0.78090000      -0.29080000
H        1.46060000      -1.54550000      -0.87380000
H        3.49450000      -0.24610000      -0.41290000
H        2.55790000       0.97070000      -1.27200000
H        2.01520000       2.14560000       0.73500000
H        2.39730000      -0.24530000       2.56900000
H        1.12760000       0.97200000       2.61570000
H        0.54890000      -1.54420000       1.60240000
H        4.50690000       0.59300000       1.65190000
