21
Properties=species:S:1:pos:R:3 gdb_105869=T pbc="F F F"
C       -0.10950000       1.52090000       0.06450000
C        0.06950000       0.01520000       0.12460000
C        1.31960000      -0.73900000      -0.23680000
C        2.57550000       0.01560000       0.22490000
C        2.06570000      -0.09310000       1.68860000
O        1.98500000       1.12460000       2.40030000
C        0.77680000      -0.77340000       1.20720000
C        0.09950000      -1.83740000       2.01460000
O       -0.48850000      -1.28330000       3.19570000
H        0.72940000       2.05590000       0.50860000
H       -0.23300000       1.85320000      -0.97260000
H       -1.00990000       1.82010000       0.61340000
H       -0.81610000      -0.52540000      -0.21300000
H        1.31300000      -1.53840000      -0.96880000
H        3.50720000      -0.52830000       0.06020000
H        2.69010000       1.03280000      -0.15740000
H        2.66930000      -0.82350000       2.24790000
H        1.45470000       0.95250000       3.18660000
H       -0.64520000      -2.37940000       1.41110000
H        0.82460000      -2.57400000       2.37960000
H       -1.15590000      -0.65150000       2.90680000
