19
Properties=species:S:1:pos:R:3 gdb_33191=T pbc="F F F"
C       -0.07800000       1.54800000       0.10520000
C       -0.09620000       0.05330000      -0.22300000
C       -1.41540000      -0.61250000       0.16290000
N       -1.39410000      -2.03780000      -0.18450000
C       -2.54300000      -2.78350000      -0.03310000
C       -2.82250000      -4.05120000       0.38020000
N       -4.18300000      -4.29320000       0.20060000
C       -4.64770000      -3.19450000      -0.28030000
O       -3.70820000      -2.21620000      -0.45990000
H        0.87640000       2.00130000      -0.17720000
H       -0.87120000       2.08050000      -0.43060000
H       -0.22610000       1.72330000       1.17630000
H        0.07750000      -0.10550000      -1.29330000
H        0.72890000      -0.44720000       0.30270000
H       -1.61670000      -0.45630000       1.23600000
H       -2.24120000      -0.15100000      -0.38570000
H       -0.59250000      -2.52130000       0.19840000
H       -2.15580000      -4.79520000       0.78390000
H       -5.66070000      -2.93770000      -0.54340000
