18
Properties=species:S:1:pos:R:3 gdb_7153=T pbc="F F F"
C       -0.04670000       1.47190000      -0.02750000
C        0.00640000       0.01720000      -0.01470000
C        0.05720000      -1.18600000       0.01250000
C        0.08260000      -2.65060000      -0.00110000
O       -1.22450000      -3.20400000       0.17760000
C        0.75900000      -3.18710000      -1.27500000
C        0.86020000      -4.70690000      -1.28310000
O        1.49650000      -5.08820000      -2.49460000
H        0.75950000       1.90120000       0.57740000
H        0.05300000       1.86820000      -1.04390000
H       -0.99560000       1.83660000       0.38090000
H        0.64650000      -3.00780000       0.87090000
H       -1.81050000      -2.75000000      -0.43830000
H        0.19300000      -2.85590000      -2.15380000
H        1.76150000      -2.75410000      -1.36080000
H        1.43860000      -5.04330000      -0.40590000
H       -0.14520000      -5.14100000      -1.19700000
H        1.50700000      -6.04870000      -2.53590000
