20
Properties=species:S:1:pos:R:3 gdb_99087=T pbc="F F F"
C       -0.11420000       1.38110000       0.15260000
N        0.08880000      -0.04090000      -0.04490000
C        0.53900000      -0.56770000      -1.21880000
O        0.84290000       0.11820000      -2.18190000
C        0.61030000      -2.09380000      -1.24060000
C        1.51370000      -2.61090000      -2.35920000
C        3.01390000      -2.41470000      -2.07930000
C        1.22330000      -4.05610000      -2.70080000
O        0.33460000      -4.72220000      -2.23180000
H        0.46760000       1.75030000       1.00430000
H        0.22080000       1.88490000      -0.75460000
H       -1.17100000       1.61740000       0.32190000
H       -0.15790000      -0.67260000       0.69900000
H        0.94290000      -2.47520000      -0.26770000
H       -0.40260000      -2.48770000      -1.38540000
H        1.28210000      -2.03330000      -3.26700000
H        3.62480000      -2.81700000      -2.89410000
H        3.23630000      -1.34950000      -1.98720000
H        3.31420000      -2.91710000      -1.15300000
H        1.91600000      -4.48670000      -3.46130000
