21
Properties=species:S:1:pos:R:3 gdb_41024=T pbc="F F F"
C        0.05200000       1.55540000       0.27850000
C        1.53950000       1.56370000      -0.18700000
C        1.38600000       0.12520000      -0.71220000
C       -0.10050000       0.05960000      -0.07120000
C        0.47280000      -0.88990000       1.06610000
C        1.71000000      -1.08400000       0.16520000
C        3.21400000      -0.92880000      -0.22180000
C        2.36240000      -0.73610000      -1.56350000
C        1.54120000      -1.96060000      -1.11620000
H       -0.13560000       1.81860000       1.32360000
H       -0.57540000       2.18960000      -0.35350000
H        1.73980000       2.29980000      -0.97090000
H        2.28520000       1.71130000       0.60280000
H       -1.02090000      -0.26270000      -0.56010000
H        0.64570000      -0.34610000       1.99960000
H       -0.09250000      -1.79840000       1.29030000
H        3.73110000      -0.04640000       0.16040000
H        3.86260000      -1.81080000      -0.19120000
H        2.77800000      -0.54320000      -2.55760000
H        2.05290000      -2.92710000      -1.10670000
H        0.53110000      -2.04500000      -1.52390000
