14
Properties=species:S:1:pos:R:3 gdb_19316=T pbc="F F F"
C       -0.27630000       1.21490000      -0.35730000
O        0.86080000       1.33480000       0.48590000
C        0.38250000       0.01140000       0.18970000
C       -0.20010000      -0.74240000       1.26480000
C       -0.67970000      -1.38950000       2.16140000
C       -1.23980000      -2.17800000       3.22350000
C       -1.76950000      -1.55460000       4.45340000
O       -2.65300000      -2.06430000       3.46440000
H       -1.22060000       1.53910000       0.07550000
H       -0.12050000       1.47090000      -1.40450000
H        1.03600000      -0.55240000      -0.47500000
H       -0.86330000      -3.19760000       3.29630000
H       -1.72830000      -2.11360000       5.38730000
H       -1.74120000      -0.47080000       4.54690000
