18
Properties=species:S:1:pos:R:3 gdb_67938=T pbc="F F F"
C        0.06630000       1.49560000      -0.07070000
C       -0.05520000      -0.02050000      -0.03010000
C       -1.19300000      -0.58130000       0.87500000
C       -0.07270000      -1.25610000       1.69110000
O       -0.00820000      -2.02780000       2.60210000
N        0.93960000      -0.65830000       0.89840000
C        1.89320000      -1.37280000       0.12730000
C        1.56590000      -1.37930000      -1.16690000
C        0.23740000      -0.68190000      -1.40730000
H        1.02720000       1.79330000      -0.50250000
H       -0.73130000       1.92590000      -0.68620000
H       -0.00240000       1.92150000       0.93460000
H       -1.79520000       0.15710000       1.40970000
H       -1.85460000      -1.31120000       0.40310000
H        2.74520000      -1.82710000       0.61370000
H        2.15110000      -1.84020000      -1.95150000
H       -0.53540000      -1.39920000      -1.71570000
H        0.29390000       0.07290000      -2.19900000
