18
Properties=species:S:1:pos:R:3 gdb_77297=T pbc="F F F"
C        0.04840000       1.56950000      -0.17300000
C        0.09120000       0.06650000       0.04280000
N        0.70950000      -0.75060000      -1.03840000
C       -0.15870000      -1.45910000      -1.95110000
C        0.61820000      -2.00460000      -3.14070000
O        0.36000000      -3.03390000      -3.70570000
C        1.52900000      -1.54560000      -0.09160000
C        1.14860000      -0.52620000       0.99170000
O        1.53240000      -0.26650000       2.09080000
H        1.03530000       1.94640000      -0.45330000
H       -0.65890000       1.83110000      -0.96660000
H       -0.27180000       2.06970000       0.74600000
H       -0.90480000      -0.31090000       0.33610000
H       -0.73060000      -2.28490000      -1.49150000
H       -0.88650000      -0.74420000      -2.36240000
H        1.45780000      -1.34630000      -3.45870000
H        1.12300000      -2.54580000       0.13290000
H        2.58940000      -1.64150000      -0.34570000
