20
Properties=species:S:1:pos:R:3 gdb_122860=T pbc="F F F"
C       -0.25440000       1.30900000      -0.53600000
O       -0.10950000      -0.03770000      -0.14520000
C        0.68670000      -0.79470000      -1.03540000
C        0.70070000      -2.22810000      -0.52770000
N       -0.64950000      -2.75600000      -0.44160000
C       -1.02720000      -3.93710000      -0.97880000
O       -0.26980000      -4.69860000      -1.56600000
C       -2.50470000      -4.31620000      -0.82010000
O       -2.74780000      -5.54100000      -1.44450000
H        0.71700000       1.82470000      -0.57870000
H       -0.73460000       1.39680000      -1.52270000
H       -0.88290000       1.80040000       0.21020000
H        0.26830000      -0.75460000      -2.05440000
H        1.71440000      -0.39880000      -1.07560000
H        1.26330000      -2.87470000      -1.20370000
H        1.18390000      -2.25650000       0.45710000
H       -1.33590000      -2.16330000      -0.00060000
H       -2.74530000      -4.35990000       0.25480000
H       -3.12780000      -3.51800000      -1.25480000
H       -1.87750000      -5.80910000      -1.78760000
