17
Properties=species:S:1:pos:R:3 gdb_54333=T pbc="F F F"
N        0.83940000      -0.13360000      -0.99900000
C        0.25860000      -0.56240000       0.15440000
O        0.88560000      -0.75200000       1.18500000
C       -1.23360000      -0.84880000       0.11350000
C       -2.05350000      -0.51730000      -1.13180000
C       -2.12070000       0.97360000      -1.38560000
O       -1.33960000       1.56460000      -2.09590000
C       -1.64560000      -2.01310000       0.95760000
N       -1.92720000      -0.65070000       1.40120000
H        1.80740000       0.13860000      -0.91480000
H        0.29540000       0.32670000      -1.71770000
H       -1.61910000      -1.00690000      -2.00940000
H       -3.06730000      -0.89790000      -0.97930000
H       -2.92460000       1.52060000      -0.85300000
H       -2.51170000      -2.59510000       0.65440000
H       -0.84900000      -2.55770000       1.45320000
H       -1.21400000      -0.39130000       2.08330000
