12
Properties=species:S:1:pos:R:3 gdb_131018=T pbc="F F F"
O       -0.00470000      -0.06250000      -0.00010000
C        0.02050000       1.12900000       0.00890000
N        1.20470000       1.90360000       0.00180000
C        1.29920000       3.27600000       0.01160000
N        2.54690000       3.64860000       0.00070000
C        3.21970000       2.44510000      -0.01630000
C        4.69510000       2.29800000      -0.03390000
O        5.46280000       3.22450000      -0.03490000
N        2.44950000       1.37110000      -0.01630000
H       -0.86660000       1.78610000       0.02410000
H        0.43090000       3.91880000       0.02640000
H        5.02390000       1.23960000      -0.04580000
