12
Properties=species:S:1:pos:R:3 gdb_129173=T pbc="F F F"
N       -0.09470000       1.28880000       0.00840000
C       -0.01180000       0.03370000       0.00100000
N       -1.11130000      -0.84480000       0.00260000
C       -0.60720000      -2.11500000      -0.00730000
C        0.74170000      -2.05670000      -0.01490000
O        1.15410000      -0.73800000      -0.01010000
C        1.14520000      -3.39920000      -0.02460000
N        0.09100000      -4.20480000      -0.02290000
O       -1.07110000      -3.34620000      -0.01140000
H        0.82250000       1.72600000       0.00540000
H       -2.06170000      -0.51950000       0.01010000
H        2.12780000      -3.84640000      -0.03280000
