17
Properties=species:S:1:pos:R:3 gdb_79425=T pbc="F F F"
C       -0.12210000       1.62500000      -0.00460000
C       -0.04970000       0.10490000      -0.00170000
C        1.14210000      -0.58460000      -0.70570000
C        2.09220000      -0.37670000       0.51760000
O        2.50400000      -1.77220000       0.60460000
C        1.09960000      -1.83130000       0.26040000
C        0.39750000      -3.12510000       0.07640000
O        0.91400000      -4.20570000       0.19350000
C        0.68570000      -0.60280000       1.16000000
H        0.84530000       2.07840000       0.23650000
H       -0.43070000       2.00100000      -0.98580000
H       -0.85050000       1.98430000       0.73010000
H       -1.02600000      -0.32840000      -0.24480000
H        1.42530000      -0.60920000      -1.75840000
H        2.84030000       0.39030000       0.70810000
H       -0.67870000      -3.00900000      -0.18640000
H        0.45110000      -0.64830000       2.22390000
