18
Properties=species:S:1:pos:R:3 gdb_77316=T pbc="F F F"
C       -0.09680000       1.56240000      -0.01850000
C        0.10060000       0.05240000       0.03100000
C        0.82550000      -0.57900000      -1.18600000
C        1.48620000      -1.85200000      -0.58730000
N        1.73630000      -1.44270000       0.78160000
C        0.95360000      -0.40880000       1.22310000
O        0.93320000       0.04450000       2.34610000
C       -0.01870000      -0.83880000      -2.33980000
C       -0.72950000      -1.05710000      -3.28430000
H        0.85540000       2.07790000      -0.18360000
H       -0.78250000       1.84160000      -0.82330000
H       -0.50420000       1.91220000       0.93320000
H       -0.87500000      -0.43880000       0.14820000
H        1.63320000       0.10460000      -1.47940000
H        0.80190000      -2.70880000      -0.65010000
H        2.41080000      -2.11470000      -1.10880000
H        2.27160000      -1.99080000       1.43630000
H       -1.35340000      -1.24500000      -4.12290000
