16
Properties=species:S:1:pos:R:3 gdb_74504=T pbc="F F F"
C        0.02880000       1.46900000       0.02860000
C        0.01370000      -0.02300000      -0.02760000
N       -0.04100000      -0.70610000      -1.11900000
C       -0.01790000      -2.09860000      -0.76080000
C        1.22180000      -2.62750000      -0.04730000
C        0.08010000      -2.15460000       0.79430000
N        0.10710000      -0.76440000       1.14610000
C       -0.81100000      -3.00410000      -1.54640000
N       -1.44890000      -3.75780000      -2.14880000
H        1.00400000       1.83690000       0.36380000
H       -0.18160000       1.86970000      -0.96270000
H       -0.72240000       1.84210000       0.73400000
H        1.37690000      -3.69880000      -0.09700000
H        2.11680000      -2.01770000      -0.10920000
H       -0.48130000      -2.83140000       1.42540000
H       -0.36400000      -0.44810000       1.98010000
