17
Properties=species:S:1:pos:R:3 gdb_33850=T pbc="F F F"
C       -0.07430000      -1.15950000       0.27140000
C       -0.00750000       0.02830000       0.09760000
C        0.03920000       1.44310000      -0.13860000
C       -1.00400000       2.10370000      -1.04460000
C       -0.34350000       3.36710000      -1.60480000
C        0.09080000       4.47090000      -0.67840000
C        1.09450000       3.42770000      -1.11270000
C        1.28270000       2.25660000      -0.18050000
O        0.44230000       2.26780000       0.97690000
H       -0.12470000      -2.20770000       0.43440000
H       -1.24860000       1.41410000      -1.85850000
H       -1.92900000       2.30320000      -0.49370000
H       -0.58160000       3.63710000      -2.62750000
H        0.19120000       5.46130000      -1.10880000
H       -0.23220000       4.44520000       0.35490000
H        1.91880000       3.69600000      -1.76200000
H        2.26620000       1.81890000      -0.03490000
