19
Properties=species:S:1:pos:R:3 gdb_57662=T pbc="F F F"
C       -0.05110000       1.48150000      -0.24090000
C        0.02230000      -0.01770000       0.07330000
C        0.79740000      -0.32200000       1.36050000
O       -1.31140000      -0.59260000       0.14120000
C       -2.19850000      -0.15880000       1.05050000
O       -3.29190000      -0.63350000       1.14960000
C        0.69970000      -0.72760000      -1.09500000
C        0.20370000      -1.96850000      -1.69880000
O        0.03280000      -0.70070000      -2.34730000
H        0.95560000       1.87290000      -0.41660000
H       -0.64470000       1.63770000      -1.14440000
H       -0.48960000       2.05350000       0.58090000
H        0.37070000       0.20120000       2.22040000
H        0.78780000      -1.39570000       1.56680000
H        1.83770000       0.00220000       1.26070000
H       -1.82810000       0.66270000       1.68760000
H        1.76930000      -0.51400000      -1.14930000
H        0.90880000      -2.64410000      -2.18050000
H       -0.70980000      -2.41510000      -1.31930000
