14
Properties=species:S:1:pos:R:3 gdb_15032=T pbc="F F F"
O       -0.22340000       0.16500000       0.28590000
C       -0.04520000       1.29590000      -0.06670000
C        1.35760000       1.93840000      -0.09540000
C        1.49930000       2.79170000      -1.27170000
N        1.57030000       3.48860000      -2.19130000
C        1.55710000       2.71840000       1.21390000
C        2.51610000       3.84380000       1.31400000
N        1.06410000       4.08740000       1.38610000
H       -0.87610000       1.97290000      -0.35280000
H        2.08280000       1.11850000      -0.13900000
H        1.40290000       2.07980000       2.08040000
H        3.05690000       4.00170000       2.24200000
H        3.04580000       4.14410000       0.41430000
H        0.74190000       4.46940000       0.49850000
