16
Properties=species:S:1:pos:R:3 gdb_30763=T pbc="F F F"
N        0.14060000       1.93340000      -1.19830000
H        0.67920000       1.39140000      -1.86840000
H        0.05000000       2.86420000      -1.59610000
H       -0.79430000       1.53250000      -1.19040000
C       -0.69880000       0.99570000       1.91700000
C       -1.90740000       0.53580000       1.61350000
C       -2.92990000      -0.06890000       2.51280000
O       -2.89050000      -0.27610000       3.71460000
C       -4.04530000      -0.37920000       1.62130000
O       -5.18370000      -0.94760000       2.06120000
C       -3.68830000       0.00440000       0.38180000
O       -2.42300000       0.55570000       0.32500000
H       -0.38260000       0.93790000       2.95180000
H       -0.04240000       1.41720000       1.16130000
H       -5.05750000      -1.07150000       3.01520000
H       -4.20830000      -0.04170000      -0.56230000
