18
Properties=species:S:1:pos:R:3 gdb_76928=T pbc="F F F"
C       -0.79500000       1.31940000      -0.16310000
C       -0.12190000      -0.04650000      -0.20040000
N        0.79080000      -0.32220000      -1.33210000
C        0.53060000      -0.79190000      -2.57840000
O        1.36050000      -1.29940000      -3.30380000
C        1.98830000      -0.61800000      -0.51730000
C        3.23710000       0.20710000      -0.79700000
C        1.12310000      -0.23690000       0.70230000
O        1.33100000      -0.08450000       1.86650000
H       -0.06590000       2.11970000      -0.31590000
H       -1.56330000       1.39950000      -0.93770000
H       -1.27280000       1.46400000       0.81040000
H       -0.85980000      -0.84650000      -0.04570000
H       -0.52730000      -0.64100000      -2.87450000
H        2.22970000      -1.68990000      -0.53300000
H        3.01480000       1.27770000      -0.78110000
H        3.99540000      -0.00290000      -0.03710000
H        3.63750000      -0.05380000      -1.77920000
