20
Properties=species:S:1:pos:R:3 gdb_112048=T pbc="F F F"
C        0.05670000       1.55520000      -0.27950000
O       -0.27220000       0.18740000      -0.36060000
C        0.66300000      -0.59010000      -1.09260000
C        1.92370000      -0.96630000      -0.34500000
C        2.19920000      -2.26450000      -0.45770000
C        1.17490000      -3.00410000      -1.28070000
C        0.06880000      -1.95990000      -1.45850000
C       -1.35660000      -2.25510000      -1.17960000
N       -0.87740000      -2.11080000      -2.56910000
H        0.98090000       1.73190000       0.29020000
H        0.17900000       2.00440000      -1.27800000
H       -0.76770000       2.05550000       0.23440000
H        0.92100000      -0.03270000      -2.01410000
H        2.53120000      -0.23480000       0.17490000
H        3.07010000      -2.75510000      -0.03630000
H        1.58130000      -3.30750000      -2.25470000
H        0.81860000      -3.91970000      -0.79450000
H       -1.64380000      -3.26600000      -0.90120000
H       -1.95950000      -1.46270000      -0.75130000
H       -1.14220000      -1.19110000      -2.91730000
