18
Properties=species:S:1:pos:R:3 gdb_91149=T pbc="F F F"
C       -0.37980000       1.51060000       0.08910000
C       -0.01800000       0.04220000      -0.02930000
C        0.72910000      -0.44070000      -1.30510000
C        1.75570000      -1.13690000      -0.35230000
C        3.20230000      -0.75490000      -0.27950000
C        3.39190000       0.05750000       0.76600000
C        2.07670000       0.39680000       1.39560000
O        1.84440000       1.25940000       2.21470000
N        1.13720000      -0.45590000       0.79930000
H        0.46210000       2.15720000      -0.17350000
H       -1.20990000       1.73200000      -0.59020000
H       -0.68390000       1.75890000       1.10830000
H       -0.89710000      -0.57410000       0.18760000
H        0.18220000      -1.09740000      -1.98330000
H        1.17070000       0.38430000      -1.86870000
H        1.62710000      -2.22660000      -0.32340000
H        3.96080000      -1.15080000      -0.94420000
H        4.32000000       0.48850000       1.11600000
