15
Properties=species:S:1:pos:R:3 gdb_27676=T pbc="F F F"
C        0.00080000       1.52650000       0.04470000
C        0.03350000       0.03090000       0.02790000
C       -0.00250000      -0.77190000      -1.10260000
N        0.04760000      -2.10160000      -0.68270000
C        0.11280000      -2.12920000       0.66930000
O        0.16860000      -3.33470000       1.27100000
C        0.10670000      -0.83460000       1.15250000
C       -0.07530000      -0.42430000      -2.46260000
N       -0.13550000      -0.13940000      -3.58700000
H        0.89680000       1.93840000       0.52220000
H       -0.05600000       1.92920000      -0.96950000
H       -0.86390000       1.89900000       0.60520000
H        0.03630000      -2.91170000      -1.27880000
H        0.21130000      -3.20430000       2.22360000
H        0.14990000      -0.54280000       2.19070000
