16
Properties=species:S:1:pos:R:3 gdb_16143=T pbc="F F F"
O       -0.28390000       0.10870000       0.29130000
C       -0.06300000       1.28280000       0.10960000
C        1.27790000       1.87170000      -0.03920000
C        1.47950000       3.37140000       0.20060000
C        1.57060000       2.84890000      -1.19010000
O        2.80530000       2.54740000      -1.75570000
C        3.54630000       1.74320000      -0.83030000
C        2.51120000       0.98930000       0.03280000
H       -0.89720000       2.01890000       0.02890000
H        0.59070000       3.94110000       0.45480000
H        2.37700000       3.68140000       0.72410000
H        0.82850000       3.11460000      -1.93400000
H        4.19450000       1.08490000      -1.41340000
H        4.18620000       2.38370000      -0.20870000
H        2.87400000       0.83220000       1.05220000
H        2.26000000       0.01150000      -0.38670000
