12
Properties=species:S:1:pos:R:3 gdb_23753=T pbc="F F F"
O        0.08420000       1.37800000      -0.07530000
C        0.05650000       0.02330000      -0.06440000
C        0.02210000      -0.71080000      -1.24090000
C       -0.00510000      -2.10360000      -1.15940000
C        0.00320000      -2.70900000       0.08960000
N        0.03640000      -2.00510000       1.23240000
C        0.06120000      -0.70830000       1.13060000
F        0.09490000       0.01420000       2.26570000
H        0.10530000       1.68000000       0.84140000
H        0.01710000      -0.18930000      -2.19120000
H       -0.03230000      -2.70710000      -2.05920000
H       -0.01730000      -3.78910000       0.19180000
