16
Properties=species:S:1:pos:R:3 gdb_49254=T pbc="F F F"
O       -1.02130000       1.27120000       0.22570000
C        0.13500000       0.99590000       0.40100000
C        1.29730000       1.86700000      -0.01800000
N        2.44440000       1.38760000       0.22400000
C        3.72440000       2.02700000       0.04520000
C        3.91390000       3.27940000      -0.76180000
C        3.02190000       3.96560000      -1.46720000
C        1.56660000       3.65300000      -1.63870000
O        0.88970000       3.04300000      -0.53690000
H        0.47780000       0.06440000       0.89290000
H        4.11080000       2.20520000       1.06200000
H        4.40980000       1.26390000      -0.35520000
H        4.94530000       3.62930000      -0.76120000
H        3.35600000       4.83740000      -2.02510000
H        1.00620000       4.57520000      -1.81430000
H        1.41910000       3.01750000      -2.52460000
