17
Properties=species:S:1:pos:R:3 gdb_52083=T pbc="F F F"
O        0.26700000       0.03920000      -0.20880000
C        0.46640000       1.11140000       0.27530000
O        0.67750000       2.21190000      -0.48310000
C        0.91810000       3.45710000       0.18170000
C        2.36330000       3.86840000       0.04140000
C        2.88130000       4.30440000      -1.32390000
C        2.70160000       5.32880000      -0.26080000
C        3.32520000       3.15280000       0.91440000
O        3.01440000       2.31940000       1.73090000
H        0.49800000       1.32280000       1.35800000
H        0.26040000       4.19300000      -0.28930000
H        0.65130000       3.37590000       1.24160000
H        3.88940000       4.00690000      -1.59220000
H        2.16740000       4.25590000      -2.13770000
H        1.86250000       6.01260000      -0.32430000
H        3.58260000       5.74420000       0.21660000
H        4.38960000       3.44860000       0.76810000
