20
Properties=species:S:1:pos:R:3 gdb_126209=T pbc="F F F"
C       -0.04380000       1.73170000       0.49350000
C        0.00380000       0.28370000      -0.02510000
C       -1.34740000      -0.33420000      -0.16380000
C       -2.06880000      -0.80340000      -1.22470000
C       -1.69370000      -0.88330000      -2.67480000
C       -1.38660000      -2.31470000      -3.14750000
C       -3.28270000      -1.23310000      -0.61170000
N       -3.29650000      -1.04180000       0.68220000
O       -2.06180000      -0.46870000       0.97340000
H        0.96780000       2.13430000       0.59730000
H       -0.60020000       2.37570000      -0.19400000
H       -0.53400000       1.77660000       1.46910000
H        0.50190000       0.24620000      -0.99870000
H        0.60550000      -0.32800000       0.65860000
H       -2.50660000      -0.47010000      -3.28460000
H       -0.82380000      -0.24420000      -2.86220000
H       -1.13080000      -2.32750000      -4.21150000
H       -0.54780000      -2.73990000      -2.58810000
H       -2.24910000      -2.97250000      -3.00010000
H       -4.15080000      -1.67450000      -1.08320000
