20
Properties=species:S:1:pos:R:3 gdb_9770=T pbc="F F F"
C        0.06780000       1.56860000      -0.08380000
C        0.00310000       0.04480000       0.04440000
C        0.68390000      -0.52280000       1.30480000
C       -0.01090000      -0.11190000       2.60080000
C        0.86870000      -2.05280000       1.18220000
O        2.13470000      -2.18670000       0.55530000
C        2.90640000      -1.16300000       1.12870000
O        2.05290000      -0.05690000       1.33630000
H        1.10310000       1.91180000      -0.01400000
H       -0.33650000       1.89120000      -1.04800000
H       -0.50980000       2.07200000       0.69780000
H       -1.04190000      -0.29180000       0.03260000
H        0.49260000      -0.41390000      -0.82280000
H       -1.04100000      -0.48430000       2.62260000
H        0.52170000      -0.51790000       3.46550000
H       -0.03990000       0.97540000       2.70290000
H        0.86930000      -2.53180000       2.17410000
H        0.11870000      -2.53400000       0.55130000
H        3.33650000      -1.49050000       2.09340000
H        3.71010000      -0.89590000       0.43440000
