23
Properties=species:S:1:pos:R:3 gdb_90253=T pbc="F F F"
C       -0.20580000       1.54740000       0.00210000
C        0.03140000       0.04280000       0.01970000
C        1.11620000      -0.52240000      -0.96010000
C        1.91310000      -1.04420000       0.23960000
C        2.78030000      -2.29170000       0.42610000
C        3.64610000      -1.50240000       1.45940000
C        2.91980000      -0.17560000       1.07230000
C        1.78870000       0.27740000       2.03200000
C        0.78510000      -0.60320000       1.23810000
H        0.72940000       2.11290000       0.07410000
H       -0.69340000       1.84710000      -0.93220000
H       -0.85070000       1.86260000       0.83030000
H       -0.92790000      -0.46260000      -0.12820000
H        0.73310000      -1.31530000      -1.61080000
H        1.62980000       0.21250000      -1.59030000
H        2.27940000      -3.20150000       0.77260000
H        3.34840000      -2.53960000      -0.47720000
H        3.48720000      -1.79890000       2.50040000
H        4.72070000      -1.51560000       1.26410000
H        3.55180000       0.59080000       0.61670000
H        1.93580000      -0.02340000       3.07440000
H        1.56950000       1.34870000       2.02380000
H        0.19150000      -1.32080000       1.80980000
