16
Properties=species:S:1:pos:R:3 gdb_17807=T pbc="F F F"
N       -0.13400000       1.31000000       0.21260000
C       -0.06220000      -0.06570000       0.08860000
O        0.87570000      -0.72500000       0.49200000
N       -1.15960000      -0.61500000      -0.58980000
C       -2.59120000      -0.47150000      -0.07850000
C       -2.92590000      -1.68720000      -0.98090000
C       -1.60360000      -2.01570000      -0.23410000
C       -2.26130000      -1.46850000       1.06850000
H        0.74740000       1.74540000       0.43810000
H       -0.69700000       1.80760000      -0.45960000
H       -3.08740000       0.49770000      -0.02840000
H       -3.80220000      -2.27350000      -0.70200000
H       -2.84140000      -1.52300000      -2.05530000
H       -0.93540000      -2.86460000      -0.35800000
H       -1.57600000      -1.11930000       1.84130000
H       -3.09600000      -2.03790000       1.48580000
