23
Properties=species:S:1:pos:R:3 gdb_110052=T pbc="F F F"
C       -0.70840000       1.29760000      -0.00740000
C        0.11260000       0.00830000       0.01340000
C        1.21850000      -0.04800000      -1.06820000
O        2.31750000      -0.75780000      -0.50840000
C        1.90550000      -1.35170000       0.72720000
C        3.14690000      -1.70720000       1.52720000
C        0.89080000      -0.34320000       1.30910000
C        1.53950000       0.85460000       2.00010000
O        1.99850000       0.42420000       3.27720000
H       -0.07840000       2.18760000       0.09080000
H       -1.25270000       1.38840000      -0.95370000
H       -1.44830000       1.31570000       0.79960000
H       -0.57540000      -0.82670000      -0.16540000
H        0.86410000      -0.54670000      -1.98140000
H        1.56290000       0.95600000      -1.35080000
H        1.35330000      -2.28490000       0.51350000
H        3.74260000      -0.82210000       1.75750000
H        2.87060000      -2.18480000       2.47020000
H        3.76420000      -2.40040000       0.94790000
H        0.23420000      -0.82510000       2.04120000
H        2.36680000       1.24230000       1.38570000
H        0.80430000       1.66360000       2.11520000
H        2.45650000       1.15990000       3.69400000
