19
Properties=species:S:1:pos:R:3 gdb_17172=T pbc="F F F"
C       -0.00460000       1.55590000      -0.06260000
C       -0.03140000       0.02690000       0.05950000
C        0.69750000      -0.48030000       1.28020000
C        0.44700000      -0.21600000       2.76600000
N        1.64850000      -1.14830000       2.85960000
C        1.10730000      -1.94720000       1.64400000
C        2.46300000      -1.87080000       0.93580000
C        2.23810000      -0.49940000       1.57900000
H        1.02240000       1.92810000      -0.13980000
H       -0.54970000       1.89140000      -0.94970000
H       -0.46420000       2.03080000       0.81050000
H       -1.07180000      -0.32260000       0.09740000
H        0.40940000      -0.42520000      -0.83880000
H        0.64440000       0.78760000       3.15880000
H       -0.46180000      -0.63000000       3.21790000
H        0.44450000      -2.80100000       1.80130000
H        3.26370000      -2.47700000       1.36730000
H        2.46180000      -1.91900000      -0.15580000
H        2.91290000       0.35530000       1.66160000
