23
Properties=species:S:1:pos:R:3 gdb_105239=T pbc="F F F"
C       -0.19600000       1.28480000      -0.32930000
C        0.17020000      -0.14840000      -0.00530000
C        1.60980000      -0.60370000       0.06690000
C        0.76370000      -0.58070000       1.32030000
C        1.07580000       0.45080000       2.41170000
O        1.89460000       1.54360000       2.02160000
C        0.26450000      -1.86470000       1.93140000
C        0.31080000      -3.19950000       1.23640000
C        1.21510000      -2.93520000       2.41530000
H        0.50750000       1.98660000       0.12210000
H       -0.19910000       1.44690000      -1.41330000
H       -1.19930000       1.52790000       0.03990000
H       -0.50790000      -0.88420000      -0.43270000
H        1.88990000      -1.55280000      -0.37740000
H        2.36600000       0.16790000      -0.03460000
H        0.14230000       0.90070000       2.77010000
H        1.52430000      -0.07920000       3.26540000
H        2.78020000       1.20160000       1.86580000
H       -0.61230000      -1.71570000       2.56020000
H       -0.53140000      -3.86900000       1.37220000
H        0.76640000      -3.26610000       0.25460000
H        2.27080000      -2.79480000       2.20700000
H        1.00790000      -3.43690000       3.35420000
