17
Properties=species:S:1:pos:R:3 gdb_128374=T pbc="F F F"
C        0.03270000       1.36470000      -0.06950000
N       -0.01820000      -0.06680000       0.17830000
C       -1.21850000      -0.72060000       0.07940000
N       -2.38160000      -0.10650000       0.04720000
O       -3.34610000      -1.12440000       0.00940000
C       -2.72520000      -2.32290000       0.00220000
C       -1.38130000      -2.14510000       0.04400000
O       -0.33040000      -2.99660000       0.04610000
C       -0.67570000      -4.37040000      -0.01450000
H        1.05320000       1.71600000       0.09690000
H       -0.28170000       1.63620000      -1.08720000
H       -0.63240000       1.87650000       0.63060000
H        0.76340000      -0.60710000      -0.15960000
H       -3.36200000      -3.19120000      -0.03110000
H       -1.28070000      -4.66090000       0.85450000
H       -1.23660000      -4.59400000      -0.93190000
H        0.25920000      -4.93210000      -0.01180000
