15
Properties=species:S:1:pos:R:3 gdb_69029=T pbc="F F F"
O        0.15260000       1.37710000      -0.16350000
C        0.06740000       0.02270000      -0.07300000
C       -0.26540000      -0.81660000      -1.26870000
C       -1.12510000      -1.02400000      -0.04940000
N       -0.30730000      -1.87010000       0.88790000
C        0.61030000      -0.78510000       1.06380000
N        1.45320000      -0.44960000       1.93980000
C       -2.52150000      -0.87740000       0.07190000
C       -3.71220000      -0.74900000       0.20360000
H        0.27980000       1.71950000       0.73110000
H       -0.73470000      -0.23540000      -2.05670000
H        0.38380000      -1.62430000      -1.59680000
H       -0.79060000      -2.15580000       1.73380000
H        1.53630000      -1.14760000       2.68090000
H       -4.76340000      -0.63940000       0.30600000
