19
Properties=species:S:1:pos:R:3 gdb_75134=T pbc="F F F"
C       -0.04760000       1.54140000       0.03060000
C        0.00660000       0.00660000      -0.02960000
C       -1.41360000      -0.58820000       0.00180000
C        0.85650000      -0.53510000      -1.21150000
N        1.96090000      -1.34950000      -0.68080000
C        1.90590000      -1.35180000       0.60060000
N        2.72160000      -2.02170000       1.45590000
C        0.78730000      -0.52710000       1.17070000
O        0.58660000      -0.33050000       2.34590000
H        0.95530000       1.97830000      -0.01570000
H       -0.62790000       1.93840000      -0.80850000
H       -0.51650000       1.86850000       0.96350000
H       -1.99980000      -0.21800000      -0.84530000
H       -1.38980000      -1.68130000      -0.05590000
H       -1.92470000      -0.30730000       0.92760000
H        0.26000000      -1.14960000      -1.89670000
H        1.27600000       0.28000000      -1.81390000
H        3.59930000      -2.37200000       1.10900000
H        2.68160000      -1.73160000       2.42050000
