13
Properties=species:S:1:pos:R:3 gdb_133365=T pbc="F F F"
N        0.01560000       1.35790000       0.18110000
C        0.01840000      -0.01130000       0.06640000
N       -1.16550000      -0.63830000       0.07810000
N       -1.21370000      -1.96580000       0.03250000
C       -0.10300000      -2.68250000      -0.03630000
C        1.17640000      -2.10170000      -0.06930000
O        2.28000000      -2.87200000      -0.15060000
C        1.21590000      -0.72840000      -0.01480000
F        2.40330000      -0.08940000      -0.04800000
H        0.81000000       1.84950000      -0.19580000
H       -0.88280000       1.77820000      -0.00650000
H       -0.20940000      -3.76120000      -0.07350000
H        3.05750000      -2.29930000      -0.15630000
