14
Properties=species:S:1:pos:R:3 gdb_4046=T pbc="F F F"
O       -0.18390000       1.33820000       0.00790000
N        0.01030000      -0.05350000       0.00260000
C       -1.10300000      -0.66460000       0.00850000
C       -2.48080000      -0.02860000       0.01990000
N       -3.35300000      -1.18510000       0.02320000
C       -2.74380000      -2.41180000       0.01680000
O       -3.30420000      -3.48360000       0.01880000
C       -1.22890000      -2.16410000       0.00510000
H        0.71940000       1.67300000       0.00280000
H       -2.60890000       0.60770000       0.90550000
H       -2.62150000       0.61210000      -0.86060000
H       -4.35840000      -1.12240000       0.03200000
H       -0.78470000      -2.62910000      -0.88000000
H       -0.77010000      -2.63450000       0.87990000
