23
Properties=species:S:1:pos:R:3 gdb_99785=T pbc="F F F"
C        0.79750000       1.44520000       0.18090000
O        0.07100000       0.26290000      -0.08290000
C        0.56560000      -0.53340000      -1.16470000
C        0.77490000      -1.95910000      -0.60450000
C        2.01270000      -2.05160000       0.29210000
O       -0.38730000      -2.38710000       0.08760000
C       -0.39150000      -0.50330000      -2.34260000
C       -1.88270000      -0.54570000      -2.14830000
C       -1.22720000       0.71050000      -2.66510000
H        1.83700000       1.23090000       0.46800000
H        0.80840000       2.12100000      -0.68530000
H        0.29960000       1.94930000       1.01360000
H        1.54050000      -0.14160000      -1.49000000
H        0.88930000      -2.64750000      -1.45070000
H        1.93950000      -1.33780000       1.11980000
H        2.08920000      -3.05610000       0.71610000
H        2.93080000      -1.83840000      -0.26660000
H       -0.61670000      -1.65730000       0.67710000
H       -0.00700000      -1.05300000      -3.19840000
H       -2.47060000      -1.14840000      -2.83120000
H       -2.25180000      -0.52850000      -1.13100000
H       -1.18140000       1.55400000      -1.98620000
H       -1.35660000       0.97870000      -3.70790000
