15
Properties=species:S:1:pos:R:3 gdb_27456=T pbc="F F F"
O        0.00580000       1.34960000       0.25660000
C       -0.02650000      -0.00560000       0.08720000
C       -1.22330000      -0.61910000       0.23230000
C       -1.50500000      -2.03340000      -0.02730000
N       -2.60870000      -2.35650000      -0.58370000
N       -0.62600000      -3.02010000       0.46720000
C        0.64710000      -2.99630000       0.32760000
C        1.50680000      -1.96450000      -0.22230000
C        1.21410000      -0.64790000      -0.29170000
H        0.91480000       1.66210000       0.22330000
H       -2.08250000       0.00040000       0.46560000
H       -2.68150000      -3.37710000      -0.61290000
H        1.17860000      -3.87630000       0.70150000
H        2.51210000      -2.27890000      -0.48800000
H        2.00380000       0.02350000      -0.62810000
