20
Properties=species:S:1:pos:R:3 gdb_58488=T pbc="F F F"
C        0.13910000       1.36240000      -0.37330000
C        0.01600000      -0.00780000       0.29170000
O        0.44750000       0.01480000       1.65010000
C       -1.39770000      -0.58400000       0.18030000
C       -2.45990000       0.07860000       1.03320000
N       -1.73930000      -1.01910000      -1.17840000
C       -1.56940000      -2.04690000      -0.11680000
C       -0.47870000      -2.97280000      -0.24760000
C        0.41710000      -3.77020000      -0.33390000
H        1.17440000       1.71080000      -0.32350000
H       -0.16370000       1.30390000      -1.42190000
H       -0.49370000       2.10970000       0.12240000
H        0.69080000      -0.70450000      -0.21350000
H        0.13060000       0.83130000       2.04950000
H       -2.60660000       1.12600000       0.74570000
H       -3.42240000      -0.43210000       0.92970000
H       -2.17790000       0.05000000       2.08990000
H       -2.73190000      -0.88540000      -1.36010000
H       -2.47990000      -2.49240000       0.28050000
H        1.21490000      -4.46670000      -0.41070000
