15
Properties=species:S:1:pos:R:3 gdb_70136=T pbc="F F F"
N       -0.12920000       1.40860000      -0.05470000
C       -0.02190000      -0.01850000      -0.00490000
C       -0.50100000      -0.76180000      -1.23810000
C       -1.32510000      -0.84420000       0.01060000
N       -1.35800000      -2.07770000       0.71470000
C       -0.27370000      -2.53200000       1.16740000
O        0.96500000      -1.93440000       1.15290000
C        1.09710000      -0.60280000       0.78120000
O        2.07200000      -0.00530000       1.13770000
H       -0.09710000       1.79410000       0.88530000
H        0.67580000       1.79540000      -0.54090000
H       -0.86240000      -0.11780000      -2.03030000
H        0.02770000      -1.65360000      -1.55440000
H       -2.24580000      -0.27390000       0.03920000
H       -0.21070000      -3.49650000       1.66160000
