19
Properties=species:S:1:pos:R:3 gdb_77098=T pbc="F F F"
C       -0.27190000       1.28260000      -0.06860000
C       -0.03680000      -0.20970000       0.09330000
C        1.20350000      -0.82400000      -0.62670000
O        1.70490000      -1.36070000       0.62750000
C        0.65610000      -0.71800000       1.35710000
C        0.92310000      -0.01960000       2.65100000
C        0.10270000      -1.30460000       2.60800000
C        0.96830000      -1.83500000      -1.64090000
C        0.75770000      -2.65910000      -2.49030000
H        0.63510000       1.85320000       0.15490000
H       -0.58240000       1.51910000      -1.09170000
H       -1.06220000       1.63080000       0.60490000
H       -0.94400000      -0.77500000      -0.13460000
H        1.88910000      -0.05720000      -1.01230000
H        1.93130000      -0.08570000       3.04590000
H        0.41420000       0.91670000       2.85780000
H       -0.96750000      -1.24520000       2.78080000
H        0.57310000      -2.20980000       2.97700000
H        0.57810000      -3.39190000      -3.23780000
