21
Properties=species:S:1:pos:R:3 gdb_66347=T pbc="F F F"
C        0.00660000       1.53000000       0.03670000
C       -0.02160000      -0.00740000      -0.00110000
C        0.65540000      -0.54420000      -1.29310000
C        0.80700000      -2.07130000      -1.27110000
C        1.51360000      -2.53070000       0.01140000
C        0.79350000      -1.97380000       1.24800000
N        0.60980000      -0.51680000       1.22770000
C       -1.43740000      -0.44560000       0.00710000
N       -2.54160000      -0.78580000      -0.01930000
H        1.04560000       1.87540000       0.01470000
H       -0.51190000       1.95060000      -0.82810000
H       -0.46600000       1.89650000       0.95030000
H        0.09140000      -0.21810000      -2.17370000
H        1.64550000      -0.07270000      -1.35060000
H       -0.18620000      -2.53460000      -1.32830000
H        1.35780000      -2.40060000      -2.15820000
H        1.55050000      -3.62490000       0.06020000
H        2.55440000      -2.17730000       0.00680000
H       -0.20050000      -2.43130000       1.33130000
H        1.33380000      -2.22640000       2.16570000
H        1.51030000      -0.05580000       1.32420000
