10
Properties=species:S:1:pos:R:3 gdb_2815=T pbc="F F F"
N       -0.17690000      -1.15990000      -0.00820000
C       -0.07640000      -0.00960000       0.01810000
C        0.01580000       1.43070000       0.00920000
N        0.53140000       2.07510000       1.22080000
C        1.34050000       2.14730000       0.00040000
C        2.59650000       1.43640000       0.00060000
N        3.61390000       0.89070000      -0.03320000
H       -0.78150000       1.91800000      -0.54640000
H        0.05490000       2.95790000       1.38690000
H        1.36310000       3.07820000      -0.56060000
