16
Properties=species:S:1:pos:R:3 gdb_19145=T pbc="F F F"
O       -1.09330000       1.33950000       0.08810000
C        0.02780000       0.96320000       0.31020000
C        1.26700000       1.70010000      -0.11000000
C        2.36330000       1.70960000       0.88900000
O        2.40960000       0.83760000      -0.23050000
C        1.10720000       2.78140000      -1.12990000
C        2.29940000       3.30270000      -1.88610000
C        1.27450000       2.45340000      -2.59360000
H        0.24490000       0.02130000       0.86240000
H        3.05490000       2.54930000       0.86530000
H        2.23710000       1.22270000       1.85530000
H        0.31950000       3.48350000      -0.87920000
H        2.33890000       4.36400000      -2.10330000
H        3.26000000       2.84200000      -1.68450000
H        1.56500000       1.44040000      -2.84880000
H        0.59910000       2.92350000      -3.29880000
