16
Properties=species:S:1:pos:R:3 gdb_85593=T pbc="F F F"
C       -0.09570000       1.39870000       0.30260000
N        0.02190000      -0.03610000       0.08020000
C       -1.12600000      -0.69320000      -0.52710000
C       -1.08530000      -2.20280000      -0.34130000
O       -2.03770000      -2.91400000      -0.52810000
C        0.26930000      -2.71330000       0.11550000
O        1.33440000      -1.88980000      -0.34910000
C        1.29070000      -0.55040000      -0.07620000
O        2.31000000       0.08420000       0.01030000
H        0.80330000       1.74700000       0.80800000
H       -0.20040000       1.95080000      -0.64120000
H       -0.97350000       1.59910000       0.92450000
H       -2.04540000      -0.31920000      -0.06580000
H       -1.20520000      -0.48150000      -1.60650000
H        0.27180000      -2.76260000       1.21440000
H        0.44540000      -3.71660000      -0.27520000
