23
Properties=species:S:1:pos:R:3 gdb_95495=T pbc="F F F"
C       -0.33650000       1.47590000       0.04980000
C       -0.00700000      -0.02340000      -0.01390000
C        0.74120000      -0.37020000      -1.32130000
C        0.61370000      -1.83340000      -1.74980000
C        1.01400000      -2.88840000      -0.75960000
C        1.33270000      -2.78600000       0.53890000
C        1.35930000      -1.62580000       1.44020000
C        2.09630000      -1.86740000       2.73970000
C        0.76900000      -0.44180000       1.21200000
H        0.57890000       2.07860000       0.02170000
H       -0.96330000       1.77950000      -0.79450000
H       -0.86990000       1.72480000       0.97310000
H       -0.96070000      -0.57430000      -0.02580000
H        0.35240000       0.25320000      -2.13570000
H        1.79820000      -0.10530000      -1.20400000
H       -0.42280000      -2.03480000      -2.06170000
H        1.20750000      -1.98510000      -2.66320000
H        1.05550000      -3.89000000      -1.18620000
H        1.62560000      -3.71600000       1.02540000
H        1.66100000      -2.71230000       3.28850000
H        3.14790000      -2.12210000       2.55810000
H        2.06700000      -0.98980000       3.39000000
H        0.86140000       0.31830000       1.98630000
