19
Properties=species:S:1:pos:R:3 gdb_62023=T pbc="F F F"
C       -0.86840000       1.10580000       1.18640000
C        0.19470000       0.17090000       0.59940000
N        0.53190000      -0.87020000       1.57310000
C        1.80470000      -1.51830000       1.31420000
C        3.00940000      -0.66410000       1.75430000
N        4.21780000      -1.07030000       1.27920000
O        2.87560000       0.27490000       2.51690000
C       -0.38290000      -0.51800000      -0.63120000
O       -0.02740000      -0.32500000      -1.76510000
H       -0.46760000       1.61470000       2.06870000
H       -1.16330000       1.86630000       0.45860000
H       -1.75720000       0.54150000       1.48710000
H        1.06250000       0.76550000       0.27620000
H        0.59450000      -0.44110000       2.49250000
H        1.85610000      -2.46600000       1.86700000
H        1.88440000      -1.77390000       0.25120000
H        4.30170000      -1.77730000       0.56960000
H        5.03690000      -0.54050000       1.52950000
H       -1.18780000      -1.24750000      -0.38140000
