20
Properties=species:S:1:pos:R:3 gdb_33083=T pbc="F F F"
C       -0.04900000       1.52420000       0.01930000
C       -0.02620000       0.00050000       0.08190000
N        0.83950000      -0.46340000       1.15310000
C        0.91540000      -1.84640000       1.36730000
C        0.46170000      -2.85260000       0.54180000
N        0.78870000      -4.06110000       1.14650000
C        1.43620000      -3.82920000       2.32640000
N        1.92350000      -4.92130000       3.07510000
C        1.52710000      -2.46630000       2.50420000
H        0.96060000       1.92170000      -0.12040000
H       -0.67690000       1.86900000      -0.80720000
H       -0.45610000       1.95120000       0.94380000
H       -1.05570000      -0.39000000       0.18030000
H        0.36550000      -0.40100000      -0.86180000
H        0.67780000       0.04430000       2.01370000
H       -0.07060000      -2.82390000      -0.39270000
H        0.74670000      -4.96360000       0.70750000
H        1.18290000      -5.40610000       3.57450000
H        2.59870000      -4.60620000       3.76070000
H        1.96040000      -1.96260000       3.35560000
