16
Properties=species:S:1:pos:R:3 gdb_124223=T pbc="F F F"
C       -0.93930000       1.43150000      -1.11720000
C       -0.77940000      -0.05070000      -1.26930000
N       -0.45660000      -0.60960000      -2.35280000
O       -1.04330000      -0.66470000      -0.05290000
C       -0.91730000      -2.02640000       0.03340000
C       -1.93550000      -2.95590000      -0.04890000
N       -1.34650000      -4.15310000       0.18430000
N       -0.02260000      -4.06910000       0.40690000
C        0.24950000      -2.77080000       0.31540000
H       -0.74310000       1.91930000      -2.07060000
H       -1.95250000       1.66980000      -0.77910000
H       -0.24790000       1.80930000      -0.35770000
H       -0.39870000      -1.62470000      -2.25420000
H       -2.99050000      -2.84790000      -0.23900000
H       -1.78590000      -5.05760000       0.20890000
H        1.25640000      -2.40850000       0.45690000
