19
Properties=species:S:1:pos:R:3 gdb_58522=T pbc="F F F"
C       -0.29360000       1.48310000       0.01200000
C        0.04640000      -0.00410000      -0.04580000
O        1.00650000      -0.27780000      -1.07820000
C        0.72600000      -0.51510000       1.22350000
O        1.99050000       0.08590000       1.39050000
C       -0.06130000      -0.47010000       2.57640000
C        0.04870000      -1.99810000       2.64260000
O       -0.57540000      -2.51740000       1.45730000
C        0.77900000      -2.06170000       1.37080000
H        0.59730000       2.06890000       0.25330000
H       -0.69090000       1.82510000      -0.95080000
H       -1.05750000       1.68340000       0.76920000
H       -0.86250000      -0.59790000      -0.20790000
H        0.71750000       0.15570000      -1.88650000
H        2.39230000       0.07690000       0.51040000
H        0.53820000       0.04590000       3.32880000
H       -1.07930000      -0.07350000       2.56360000
H        0.07650000      -2.64730000       3.50940000
H        1.53140000      -2.75030000       1.00410000
