16
Properties=species:S:1:pos:R:3 gdb_37855=T pbc="F F F"
N       -0.07770000       1.52840000      -0.05080000
C        1.33650000       1.80860000       0.01480000
C        2.09860000       0.83080000       0.99020000
O        3.09370000       0.59930000      -0.03090000
C        2.05390000       0.86750000      -0.99460000
C        1.07500000      -0.38390000      -0.99190000
O        1.58760000      -1.32600000      -0.02670000
C        1.12550000      -0.41320000       0.99280000
C       -0.00910000       0.08850000       0.01850000
H       -0.60130000       1.93960000       0.71600000
H        1.61430000       2.86060000       0.02480000
H        2.51760000       1.13230000       1.95040000
H        2.42360000       1.19660000      -1.96530000
H        0.84260000      -0.82450000      -1.96090000
H        0.93580000      -0.88980000       1.95480000
H       -0.96310000      -0.43440000       0.03200000
