15
Properties=species:S:1:pos:R:3 gdb_7104=T pbc="F F F"
O       -0.19730000       1.48710000       0.01250000
C        0.03210000       0.08760000       0.00250000
C       -1.33600000      -0.58040000       0.01170000
C       -1.26060000      -2.09330000       0.00250000
O       -0.22360000      -2.70500000      -0.01100000
C       -2.62880000      -2.80750000       0.01170000
C       -2.53070000      -4.26120000       0.00320000
N       -2.47530000      -5.41420000      -0.00330000
H        0.65580000       1.93070000       0.00690000
H        0.59130000      -0.23090000      -0.88840000
H        0.60800000      -0.24070000       0.87920000
H       -1.90580000      -0.25380000       0.89200000
H       -1.92220000      -0.24410000      -0.85400000
H       -3.19330000      -2.48070000       0.89380000
H       -3.20960000      -2.47160000      -0.85620000
