15
Properties=species:S:1:pos:R:3 gdb_132615=T pbc="F F F"
N       -0.00110000       1.43820000      -0.08380000
C       -0.02780000       0.03690000      -0.03400000
C       -1.21260000      -0.70560000      -0.01420000
C       -1.20450000      -2.09600000      -0.02750000
C        0.00350000      -2.79000000      -0.06640000
O       -0.04190000      -4.15640000      -0.08190000
C        1.20250000      -2.07610000      -0.08520000
C        1.16160000      -0.69250000      -0.06670000
F        2.31920000      -0.00270000      -0.07050000
H        0.88580000       1.82230000       0.21180000
H       -0.76500000       1.87530000       0.41280000
H       -2.16070000      -0.17710000       0.00860000
H       -2.13140000      -2.65660000      -0.01020000
H        0.85590000      -4.50120000      -0.11160000
H        2.16730000      -2.57260000      -0.10860000
