16
Properties=species:S:1:pos:R:3 gdb_132512=T pbc="F F F"
C       -0.04730000       1.52590000       0.03180000
C       -0.00540000       0.01760000      -0.00490000
C       -0.06580000      -0.68530000      -1.20910000
C       -0.02450000      -2.07830000      -1.24960000
C        0.07930000      -2.80540000      -0.07010000
O        0.12050000      -4.16410000      -0.08980000
C        0.13890000      -2.09660000       1.13140000
F        0.23890000      -2.82690000       2.26370000
C        0.09880000      -0.71900000       1.18230000
H        0.87510000       1.94460000       0.45070000
H       -0.17370000       1.94080000      -0.97150000
H       -0.87480000       1.89100000       0.65050000
H       -0.14730000      -0.13520000      -2.14110000
H       -0.07230000      -2.61580000      -2.18970000
H        0.19220000      -4.46850000       0.82310000
H        0.14910000      -0.23010000       2.14950000
