21
Properties=species:S:1:pos:R:3 gdb_106711=T pbc="F F F"
C        0.35840000       1.43090000       0.29360000
C       -0.21080000       0.06170000      -0.10610000
C        0.40350000      -0.46540000      -1.36730000
O        1.77150000      -0.92280000      -1.30500000
C        0.77420000      -1.83460000      -1.80680000
C        0.65430000      -3.17160000      -1.14800000
C        0.49060000      -1.47330000      -3.25510000
C       -0.92960000      -0.98280000      -3.38480000
C        0.11000000      -0.05810000      -2.80270000
H        1.43900000       1.36550000       0.44940000
H        0.17480000       2.17900000      -0.48460000
H       -0.10110000       1.79070000       1.21890000
H       -0.03820000      -0.65860000       0.70120000
H       -1.29640000       0.13480000      -0.24670000
H        0.67000000      -3.07300000      -0.05940000
H       -0.27520000      -3.66750000      -1.44520000
H        1.48850000      -3.82070000      -1.43780000
H        1.09650000      -1.74450000      -4.11100000
H       -1.25770000      -0.74920000      -4.39350000
H       -1.71120000      -1.39520000      -2.75170000
H        0.39290000       0.87420000      -3.27570000
