18
Properties=species:S:1:pos:R:3 gdb_37467=T pbc="F F F"
C       -0.02020000       1.54230000      -0.21690000
O        1.29710000       2.01190000       0.09250000
C        1.97370000       1.02180000       0.85620000
C        1.63920000       1.13670000       2.36640000
N        0.26980000       1.63220000       2.62960000
C        0.54810000       0.18160000       2.65860000
C        0.26600000      -0.60310000       1.39170000
C       -0.01320000       0.03860000       0.03280000
C        1.38750000      -0.34150000       0.40840000
H       -0.76130000       2.07970000       0.37860000
H       -0.20370000       1.73380000      -1.28250000
H        3.04490000       1.12780000       0.67070000
H        2.42810000       1.36540000       3.07550000
H        0.22100000       1.98750000       3.58220000
H        0.47770000      -0.34860000       3.60340000
H       -0.13280000      -1.60420000       1.51550000
H       -0.57890000      -0.57660000      -0.65890000
H        1.98530000      -1.09570000      -0.08830000
