22
Properties=species:S:1:pos:R:3 gdb_39508=T pbc="F F F"
C       -0.04000000       1.38650000       0.20220000
C        1.14700000       2.28890000      -0.17660000
C        2.57550000       1.75790000       0.06550000
C        2.92440000       1.25770000       1.46500000
N        1.93700000       1.37890000       2.55160000
C        2.37060000       0.03700000       2.11880000
C        1.37050000      -0.93050000       1.48610000
O        1.18030000      -0.77250000       0.09250000
C        0.02610000      -0.05010000      -0.31050000
H       -0.14190000       1.37480000       1.28950000
H       -0.96210000       1.83220000      -0.19430000
H        1.08000000       2.54540000      -1.24230000
H        1.02980000       3.23080000       0.37150000
H        2.80650000       0.96310000      -0.64850000
H        3.26120000       2.58380000      -0.16350000
H        3.95940000       1.46490000       1.73650000
H        2.38490000       1.63340000       3.42690000
H        3.06070000      -0.47290000       2.79050000
H        1.77060000      -1.94350000       1.61870000
H        0.41220000      -0.88700000       2.02430000
H       -0.88210000      -0.59030000       0.00660000
H        0.05460000      -0.07260000      -1.40630000
