17
Properties=species:S:1:pos:R:3 gdb_18795=T pbc="F F F"
O       -0.01870000       1.46070000      -0.11570000
C        0.00020000       0.05910000       0.02490000
C        0.23480000      -0.57780000       1.41620000
C       -0.47860000       0.15480000       2.56360000
C       -1.77410000      -0.53970000       2.09980000
C       -2.43810000       0.10560000       0.86840000
C       -1.38080000      -0.61280000       0.01330000
N       -0.97400000      -1.50410000       1.20110000
H        0.88880000       1.77830000      -0.15980000
H        0.65690000      -0.40900000      -0.72120000
H        1.21040000      -1.02930000       1.61170000
H       -0.14850000      -0.20530000       3.54090000
H       -0.45320000       1.24770000       2.55190000
H       -2.42420000      -0.96850000       2.86530000
H       -3.43620000      -0.30090000       0.68770000
H       -2.47650000       1.19590000       0.81420000
H       -1.70230000      -1.08790000      -0.91540000
