17
Properties=species:S:1:pos:R:3 gdb_78643=T pbc="F F F"
C       -0.04400000       1.26170000       0.05780000
N        0.07450000      -0.10270000       0.58280000
C       -0.96750000      -1.00410000      -0.14330000
C       -0.10820000      -1.33680000      -1.31320000
C        0.93660000      -1.02130000      -0.17830000
N        1.45790000      -1.99080000       0.46230000
C        0.70140000      -3.18270000       0.02020000
C       -0.56720000      -2.52470000      -0.55490000
O       -1.57130000      -3.38680000      -0.94980000
H        0.82840000       1.83400000       0.38460000
H       -0.11280000       1.31630000      -1.04150000
H       -0.93440000       1.72960000       0.48770000
H       -2.01250000      -0.70720000      -0.09800000
H       -0.11930000      -1.09200000      -2.36860000
H        1.18080000      -3.81700000      -0.73940000
H        0.52290000      -3.79460000       0.91020000
H       -2.11040000      -2.97430000      -1.63230000
