16
Properties=species:S:1:pos:R:3 gdb_79698=T pbc="F F F"
O        0.27380000       1.41920000      -0.26260000
C        0.05580000       0.07200000      -0.04240000
C        0.18640000      -0.58740000       1.38880000
C       -0.96330000       0.02480000       2.19160000
N       -1.49210000       1.31520000       1.67740000
C       -2.07250000       0.03950000       1.18280000
C       -1.39080000      -0.56650000      -0.04570000
C       -0.64810000      -1.72310000       0.70520000
O       -0.65570000      -2.91210000       0.69640000
H       -0.30240000       1.87490000       0.37760000
H        0.68850000      -0.47700000      -0.74610000
H        1.14490000      -0.76100000       1.86990000
H       -1.11610000      -0.23390000       3.23190000
H       -2.11910000       1.71180000       2.37260000
H       -3.09740000      -0.20770000       1.42990000
H       -1.96280000      -0.71990000      -0.95660000
