23
Properties=species:S:1:pos:R:3 gdb_86982=T pbc="F F F"
C       -0.03480000       1.59970000       0.08420000
C        0.05920000       0.08310000       0.02700000
C        1.10500000      -0.57790000      -0.91500000
C        1.37010000      -1.64700000       0.18110000
C        2.79720000      -2.12600000       0.40720000
C        2.91630000      -3.08700000       1.60940000
C        4.27990000      -3.54490000       1.84500000
C        5.41350000      -3.90650000       2.01670000
C        0.71750000      -0.67960000       1.21150000
H        0.94640000       2.04650000       0.28240000
H       -0.40350000       2.01290000      -0.86160000
H       -0.71590000       1.92770000       0.87770000
H       -0.93130000      -0.34190000      -0.17330000
H        0.77160000      -0.92080000      -1.89810000
H        1.97800000       0.07120000      -1.05140000
H        0.71340000      -2.51120000       0.02030000
H        3.16980000      -2.63230000      -0.49160000
H        3.45530000      -1.26440000       0.57360000
H        2.53820000      -2.58910000       2.51180000
H        2.26280000      -3.95450000       1.44710000
H        6.41060000      -4.23300000       2.17820000
H        1.47720000      -0.06030000       1.70360000
H        0.06240000      -1.10030000       1.97890000
