19
Properties=species:S:1:pos:R:3 gdb_69994=T pbc="F F F"
C       -0.06110000       1.51110000       0.02360000
C        0.08020000       0.01640000       0.02660000
O       -0.74400000      -0.71320000       0.95340000
C        0.67630000      -0.81790000       1.08470000
C        1.30910000      -2.01150000       0.31510000
C        1.82710000      -1.28240000      -0.94020000
C        0.40060000      -0.76510000      -1.27820000
C       -0.36170000      -2.10130000      -1.25520000
O        0.28110000      -2.85060000      -0.20300000
H        0.79970000       1.98340000      -0.46200000
H       -0.96080000       1.81740000      -0.52180000
H       -0.13780000       1.89000000       1.04600000
H        1.10070000      -0.44130000       2.01240000
H        2.00810000      -2.62140000       0.88720000
H        2.53000000      -0.47520000      -0.71650000
H        2.25680000      -1.95550000      -1.68760000
H        0.28370000      -0.18980000      -2.19690000
H       -1.42240000      -1.98450000      -1.02130000
H       -0.25220000      -2.64100000      -2.20470000
