15
Properties=species:S:1:pos:R:3 gdb_129672=T pbc="F F F"
N       -0.02000000       1.32920000       0.47910000
C        0.01030000       0.01390000       0.13140000
C       -1.02640000      -0.82990000      -0.21270000
N       -0.46770000      -2.06080000      -0.40200000
N        0.76830000      -2.06920000      -0.22560000
O        1.14250000      -0.65450000       0.14840000
N       -2.37190000      -0.46540000      -0.34510000
C       -3.20760000      -1.22160000      -1.28620000
C       -3.39970000      -1.37910000       0.17910000
H        0.82890000       1.85370000       0.33480000
H       -0.87110000       1.80290000       0.21310000
H       -3.90240000      -0.62320000      -1.86820000
H       -2.73410000      -2.04210000      -1.81740000
H       -3.05240000      -2.30410000       0.63060000
H       -4.23470000      -0.89670000       0.67850000
