20
Properties=species:S:1:pos:R:3 gdb_107640=T pbc="F F F"
O       -0.09420000       1.33890000       0.63640000
C       -0.05310000       0.02220000       0.10850000
C       -1.43840000      -0.56840000       0.00530000
C       -2.09070000      -1.20550000       1.17740000
N       -1.63440000      -2.02980000       0.04490000
C       -2.72410000      -2.34240000      -0.90950000
C       -3.45350000      -1.02540000      -1.25570000
C       -2.36110000       0.04000000      -1.04020000
O       -2.82230000       1.31100000      -0.58020000
H       -0.88800000       1.76240000       0.28450000
H        0.42850000       0.00640000      -0.88500000
H        0.56420000      -0.58380000       0.77900000
H       -1.51150000      -1.33240000       2.08700000
H       -3.15610000      -1.06710000       1.33700000
H       -2.25780000      -2.77310000      -1.80200000
H       -3.38710000      -3.10260000      -0.48530000
H       -3.85460000      -1.02570000      -2.27250000
H       -4.28520000      -0.82130000      -0.57540000
H       -1.77950000       0.17620000      -1.96580000
H       -3.24850000       1.76660000      -1.31320000
