21
Properties=species:S:1:pos:R:3 gdb_91765=T pbc="F F F"
C       -0.07020000       1.54600000      -0.05140000
C        0.03060000       0.03100000       0.01760000
O        0.70100000      -0.50360000      -1.14270000
C        1.57290000      -1.57300000      -0.72610000
C        1.04370000      -1.98820000       0.65170000
C        0.80120000      -0.57700000       1.20290000
O        2.04250000       0.06090000       1.48710000
C        2.95640000       0.18370000       0.39310000
C        2.99920000      -1.03740000      -0.54030000
H        0.89770000       2.03320000       0.07360000
H       -0.49260000       1.84650000      -1.01430000
H       -0.73520000       1.90790000       0.73960000
H       -0.99180000      -0.38080000       0.04530000
H        1.52730000      -2.35810000      -1.48540000
H        0.10830000      -2.55050000       0.57740000
H        1.76150000      -2.55620000       1.24570000
H        0.23200000      -0.54170000       2.13460000
H        2.70240000       1.06590000      -0.20640000
H        3.93340000       0.36560000       0.85000000
H        3.62840000      -1.83470000      -0.12860000
H        3.43230000      -0.73390000      -1.49910000
