19
Properties=species:S:1:pos:R:3 gdb_77890=T pbc="F F F"
C       -0.02850000       1.54630000       0.01570000
C        0.04280000       0.04610000      -0.00950000
C       -0.84910000      -0.84550000       0.80260000
O       -1.62170000      -1.88010000       0.23150000
C        0.62160000      -0.97060000       1.04070000
C        1.26070000      -1.78090000      -0.07780000
O        0.79900000      -3.12380000      -0.20440000
C        0.67130000      -0.78040000      -1.13650000
O       -0.17340000      -1.34080000      -2.11610000
H        0.95020000       1.99850000      -0.18060000
H       -0.72380000       1.91500000      -0.74750000
H       -0.37760000       1.91290000       0.98640000
H       -1.39320000      -0.32450000       1.58810000
H       -1.06990000      -2.67710000       0.27620000
H        1.07180000      -0.77790000       2.00730000
H        2.35570000      -1.76290000      -0.04730000
H        0.63190000      -3.24260000      -1.15170000
H        1.46310000      -0.24230000      -1.66420000
H       -0.99910000      -1.56200000      -1.65720000
