12
Properties=species:S:1:pos:R:3 gdb_29261=T pbc="F F F"
O       -0.07150000       1.36820000      -0.21060000
C        0.02590000       0.02920000      -0.02580000
C        1.15510000      -0.68810000       0.04780000
O        1.18770000      -2.03400000       0.23510000
C        0.03240000      -2.74180000       0.36110000
N        0.10160000      -3.98160000       0.53260000
O       -1.13950000      -2.04020000       0.29120000
C       -1.25880000      -0.66390000       0.10160000
O       -2.34690000      -0.18010000       0.05980000
H        0.80890000       1.75360000      -0.28570000
H        2.15450000      -0.27780000      -0.03320000
H       -0.82970000      -4.38260000       0.61080000
