18
Properties=species:S:1:pos:R:3 gdb_47449=T pbc="F F F"
O        0.37780000      -0.03130000      -0.50610000
C        0.20850000       1.13860000      -0.31880000
O       -1.01600000       1.68800000      -0.12930000
C       -0.90910000       3.10050000       0.13290000
C        0.46230000       3.51580000      -0.41860000
C        1.28160000       2.23830000      -0.22700000
N        1.84940000       2.17910000       1.11800000
C        2.85620000       1.14420000       1.34240000
C        3.25240000       2.57540000       1.24590000
H       -1.75140000       3.59180000      -0.35760000
H       -0.97720000       3.25780000       1.21360000
H        0.38680000       3.75820000      -1.48280000
H        0.88610000       4.37310000       0.10750000
H        2.03380000       2.07490000      -1.01280000
H        2.80790000       0.64980000       2.30760000
H        3.10310000       0.49160000       0.50890000
H        3.77510000       2.89030000       0.34430000
H        3.49980000       3.14320000       2.13780000
