19
Properties=species:S:1:pos:R:3 gdb_96468=T pbc="F F F"
O        0.12460000       1.34030000      -0.33550000
C        0.02410000      -0.04570000      -0.04610000
C        0.75720000      -0.42990000       1.25640000
C        0.48440000       0.49990000       2.45030000
O       -0.83800000       0.48720000       2.95600000
C       -1.80340000       1.09660000       2.10750000
C       -2.33960000       0.10390000       1.09140000
O       -2.45170000       0.52960000      -0.27510000
C       -1.45500000      -0.42850000       0.04930000
H        1.05970000       1.55110000      -0.42730000
H        0.45820000      -0.62870000      -0.87350000
H        0.49670000      -1.46160000       1.52330000
H        1.84160000      -0.41830000       1.07540000
H        1.11780000       0.18790000       3.28700000
H        0.77080000       1.52700000       2.17830000
H       -2.60790000       1.44400000       2.76320000
H       -1.38220000       1.95670000       1.57480000
H       -3.16390000      -0.52560000       1.42790000
H       -1.66070000      -1.43530000      -0.31810000
