16
Properties=species:S:1:pos:R:3 gdb_100855=T pbc="F F F"
O       -0.15710000       1.42100000      -0.08160000
C        0.04450000       0.01560000       0.01750000
C       -1.35740000      -0.59080000       0.03700000
O       -2.09090000      -0.17680000      -1.09340000
C       -1.35220000      -2.13700000       0.03390000
C       -2.81850000      -2.61860000       0.09260000
O       -3.43020000      -2.63130000       1.12340000
C       -0.65730000      -2.69050000      -1.12670000
N       -0.11580000      -3.15240000      -2.03680000
H        0.65150000       1.82870000      -0.40370000
H        0.59940000      -0.36980000      -0.84780000
H        0.58970000      -0.25040000       0.93520000
H       -1.86070000      -0.28590000       0.96760000
H       -1.89260000       0.76260000      -1.20430000
H       -0.86480000      -2.48410000       0.95130000
H       -3.26060000      -2.92600000      -0.87420000
