21
Properties=species:S:1:pos:R:3 gdb_72740=T pbc="F F F"
C        0.02130000       1.57620000      -0.04120000
C        0.01470000       0.06670000       0.05300000
C        0.92410000      -0.69960000      -0.97050000
C        1.82780000      -1.22110000       0.19230000
C        0.77060000      -0.74080000       1.17860000
C        0.74810000      -0.33140000       2.64240000
O       -0.60550000      -0.83700000       2.78340000
C       -0.56740000      -1.46610000       1.47800000
C       -1.31960000      -0.66230000       0.39310000
H        1.04070000       1.97240000      -0.11620000
H       -0.52910000       1.91390000      -0.92810000
H       -0.45430000       2.03160000       0.83460000
H        0.40040000      -1.49100000      -1.51340000
H        1.42800000      -0.06070000      -1.69980000
H        2.08080000      -2.28540000       0.20430000
H        2.75810000      -0.64890000       0.27010000
H        1.44930000      -0.88240000       3.28630000
H        0.81940000       0.73930000       2.87330000
H       -0.69710000      -2.55200000       1.54080000
H       -2.09550000      -0.02330000       0.82380000
H       -1.75310000      -1.24930000      -0.42310000
