16
Properties=species:S:1:pos:R:3 gdb_52889=T pbc="F F F"
C       -0.12130000       1.40860000       0.04270000
C       -0.06290000      -0.04580000       0.03040000
C        0.03100000      -1.24810000       0.02310000
C        0.05510000      -2.68410000       0.00330000
C       -0.46770000      -3.43770000       1.25010000
C       -1.33210000      -3.38220000       0.03870000
O       -2.47480000      -2.61300000      -0.01950000
C        1.09940000      -3.31180000      -0.76540000
N        1.92570000      -3.84070000      -1.37830000
H        0.88760000       1.83400000       0.02020000
H       -0.66750000       1.79550000      -0.82390000
H       -0.61740000       1.77720000       0.94680000
H        0.03150000      -4.36810000       1.49490000
H       -0.72890000      -2.80630000       2.09100000
H       -1.41530000      -4.28000000      -0.56510000
H       -2.21940000      -1.68100000       0.04120000
