12
Properties=species:S:1:pos:R:3 gdb_3871=T pbc="F F F"
N        0.01590000       1.35060000       0.14110000
C       -0.03260000      -0.02740000       0.04970000
N       -1.13140000      -0.76040000       0.08460000
C       -0.63500000      -2.03700000       0.04880000
N       -1.47570000      -3.13080000       0.13210000
N        0.67950000      -2.14600000      -0.02470000
N        1.05680000      -0.81440000      -0.02330000
H        0.70570000       1.79390000      -0.44970000
H       -0.90040000       1.75650000       0.00980000
H       -2.39330000      -2.94970000      -0.24760000
H       -1.06420000      -3.97930000      -0.22880000
H        2.02950000      -0.57100000       0.03990000
