19
Properties=species:S:1:pos:R:3 gdb_111019=T pbc="F F F"
C       -0.01340000       1.64200000       0.03010000
C       -0.19740000       0.12020000      -0.03870000
C        0.58690000      -0.50130000      -1.18310000
C        2.11380000      -0.79960000      -1.14210000
C        1.88670000      -1.99140000      -0.18640000
C        0.82540000      -2.04450000      -1.32440000
O        1.92240000      -1.72430000      -2.28480000
C       -0.11700000      -3.07470000      -1.63950000
C       -0.93180000      -3.92710000      -1.87410000
H        1.03270000       1.90860000       0.21540000
H       -0.31500000       2.12010000      -0.90800000
H       -0.61520000       2.07530000       0.83450000
H        0.07930000      -0.32450000       0.92270000
H       -1.25950000      -0.11300000      -0.18690000
H        0.29980000      -0.07290000      -2.14800000
H        2.95740000      -0.11310000      -1.19880000
H        2.64150000      -2.77540000      -0.24630000
H        1.54740000      -1.80590000       0.83360000
H       -1.64640000      -4.68330000      -2.08840000
