15
Properties=species:S:1:pos:R:3 gdb_133525=T pbc="F F F"
C       -0.02410000       1.55570000       0.03560000
C       -0.00770000       0.01490000       0.04430000
N        0.68120000      -0.45210000       1.25140000
C       -1.37560000      -0.51360000       0.03220000
C       -2.49920000      -0.93520000       0.02640000
C        0.71360000      -0.48900000      -1.23360000
F        1.98440000      -0.04640000      -1.25250000
F        0.75830000      -1.82740000      -1.26840000
F        0.12190000      -0.06730000      -2.35570000
H        0.99930000       1.94090000       0.03160000
H       -0.54470000       1.93250000      -0.84620000
H       -0.53200000       1.90590000       0.93470000
H        0.67670000      -1.46740000       1.27680000
H        1.65320000      -0.15670000       1.21370000
H       -3.49210000      -1.31280000       0.01820000
