17
Properties=species:S:1:pos:R:3 gdb_68559=T pbc="F F F"
C       -0.01480000       1.52680000      -0.01830000
C       -0.01550000       0.02270000       0.01270000
N        0.40710000      -0.75520000      -1.23110000
C       -0.28710000      -1.88990000      -0.49980000
C        0.64190000      -2.01250000       0.71440000
C        0.82290000      -0.73840000       1.05720000
C       -1.34340000      -0.84700000       0.02060000
C       -2.08720000      -1.07040000       1.25240000
N       -2.68540000      -1.23680000       2.22790000
H        0.99890000       1.89970000      -0.19500000
H       -0.66270000       1.91150000      -0.81220000
H       -0.36930000       1.93220000       0.93460000
H       -0.20560000      -0.46010000      -1.99890000
H       -0.57410000      -2.77690000      -1.06110000
H        1.02680000      -2.92590000       1.14100000
H        1.40290000      -0.28950000       1.84970000
H       -2.03180000      -0.53220000      -0.77110000
