17
Properties=species:S:1:pos:R:3 gdb_48714=T pbc="F F F"
O       -0.16900000       0.08810000       0.29190000
C        0.00860000       1.25210000       0.02270000
C        1.32250000       1.92290000      -0.01100000
C        1.34270000       3.43190000       0.17980000
C        1.62060000       2.89380000      -1.18180000
C        3.06700000       2.65690000      -1.55200000
O        4.00030000       2.98270000      -0.51580000
C        3.63860000       1.60450000      -0.69370000
C        2.57830000       1.09830000       0.27140000
H       -0.84630000       1.91980000      -0.23860000
H        0.38260000       3.91180000       0.34320000
H        2.17430000       3.84460000       0.73660000
H        0.90050000       3.03380000      -1.97960000
H        3.40060000       2.85590000      -2.56640000
H        4.45450000       0.95540000      -1.00290000
H        2.91080000       1.17340000       1.31160000
H        2.35390000       0.04520000       0.07480000
