16
Properties=species:S:1:pos:R:3 gdb_16554=T pbc="F F F"
C       -0.00520000       1.54290000       0.00970000
C        1.51800000       1.76060000       0.02020000
O        1.98610000       1.40970000       1.33840000
C        1.74860000       0.05240000       1.65680000
O        0.44470000      -0.39730000       1.34450000
C        0.02000000       0.00450000       0.02610000
C        1.10660000      -0.28580000      -1.01040000
C        1.97250000       0.72930000      -1.01380000
H       -0.49560000       1.96420000       0.88880000
H       -0.46150000       1.92900000      -0.90570000
H        1.85930000       2.78160000      -0.15340000
H        2.49080000      -0.58240000       1.15150000
H        1.86030000      -0.03920000       2.73950000
H       -0.93500000      -0.49420000      -0.14240000
H        1.18920000      -1.21660000      -1.55790000
H        2.90280000       0.79230000      -1.56470000
