18
Properties=species:S:1:pos:R:3 gdb_84674=T pbc="F F F"
O       -0.18030000       1.44230000       0.22540000
C        0.02490000       0.03150000       0.05620000
C        0.95760000      -0.54010000       1.10060000
C        0.50960000      -1.25460000       2.13200000
C       -0.96550000      -1.48950000       2.28110000
C       -1.82950000      -0.18470000       2.35890000
N       -2.44200000      -0.41820000       1.01080000
C       -1.69720000      -1.73100000       0.94600000
C       -1.34770000      -0.63150000       0.02780000
H        0.68630000       1.85720000       0.29450000
H        0.47600000      -0.14530000      -0.93430000
H        2.01880000      -0.33840000       0.97230000
H        1.18900000      -1.63950000       2.88710000
H       -1.19940000      -2.21420000       3.06050000
H       -2.61600000      -0.24530000       3.11440000
H       -1.28930000       0.75930000       2.44630000
H       -2.16700000      -2.65890000       0.63480000
H       -1.77610000      -0.68890000      -0.96860000
