20
Properties=species:S:1:pos:R:3 gdb_120276=T pbc="F F F"
C       -0.46060000       1.39220000      -0.59310000
O       -0.38180000      -0.00890000      -0.68410000
C        0.90020000      -0.50820000      -0.35110000
C        0.86800000      -2.01390000      -0.50720000
C        0.87320000      -2.60580000      -1.91920000
N        2.18600000      -2.24950000      -2.51810000
C        2.07310000      -3.43510000      -1.62890000
C        2.19780000      -2.83480000      -0.21990000
O        3.37650000      -2.12440000       0.04360000
H       -0.25120000       1.74910000       0.42830000
H        0.24590000       1.88860000      -1.27770000
H       -1.47850000       1.68310000      -0.86550000
H        1.66510000      -0.06950000      -1.00950000
H        1.16540000      -0.24120000       0.68550000
H        0.04080000      -2.42190000       0.08090000
H        0.02340000      -2.82570000      -2.55230000
H        2.19200000      -2.58310000      -3.48010000
H        2.36020000      -4.41960000      -1.97760000
H        2.06560000      -3.55880000       0.58660000
H        3.58670000      -1.66780000      -0.78320000
