16
Properties=species:S:1:pos:R:3 gdb_90587=T pbc="F F F"
O        0.31190000       1.32520000       0.40370000
C        0.13870000       0.00740000      -0.06420000
C       -1.35170000      -0.50430000      -0.11740000
C       -1.38980000      -0.26320000      -1.67600000
C        0.12180000      -0.22090000      -1.56760000
C        0.62520000      -1.19230000      -2.34880000
N       -0.38830000      -1.74650000      -3.13690000
C       -1.66560000      -1.32870000      -2.73880000
O       -2.70300000      -1.69020000      -3.23890000
H       -0.06780000       1.92920000      -0.24340000
H        0.82910000      -0.60730000       0.51780000
H       -1.43690000      -1.56020000       0.14530000
H       -2.06130000       0.08730000       0.46550000
H       -1.93110000       0.64890000      -1.93880000
H        1.60250000      -1.65720000      -2.32850000
H       -0.25790000      -2.41770000      -3.87690000
