20
Properties=species:S:1:pos:R:3 gdb_73576=T pbc="F F F"
C        0.10710000       1.60580000       0.01000000
C        0.01350000       0.09310000       0.07170000
O       -1.33930000      -0.29380000       0.12060000
C       -1.49200000      -1.46620000       0.92800000
C       -0.29370000      -1.51070000       1.90950000
C        0.77320000      -0.63950000       1.23480000
C        1.70460000      -1.25980000       0.17860000
N        0.85370000      -2.07920000      -0.71540000
C        0.95510000      -0.61720000      -0.93860000
H        1.15060000       1.93130000      -0.04450000
H       -0.41600000       1.98140000      -0.87560000
H       -0.35580000       2.05250000       0.89470000
H       -2.45580000      -1.37990000       1.44200000
H       -1.50270000      -2.35750000       0.29530000
H       -0.57030000      -1.08020000       2.87650000
H        0.04050000      -2.53700000       2.07920000
H        1.29240000       0.03330000       1.91940000
H        2.76430000      -1.46130000       0.27430000
H        1.46790000      -2.52410000      -1.39660000
H        1.30950000      -0.22800000      -1.88650000
