10
Properties=species:S:1:pos:R:3 gdb_4296=T pbc="F F F"
O       -0.11160000       1.29490000       0.01020000
C        0.04560000      -0.01830000       0.00240000
N        1.18230000      -0.59430000      -0.00700000
C        1.21350000      -2.00310000      -0.01470000
O        2.24100000      -2.62020000      -0.02360000
N       -0.05000000      -2.68740000      -0.01140000
C       -1.10000000      -1.99170000      -0.00190000
O       -1.16380000      -0.61620000       0.00580000
H        0.77920000       1.67680000       0.00730000
H       -2.10250000      -2.40790000       0.00140000
