20
Properties=species:S:1:pos:R:3 gdb_99188=T pbc="F F F"
O       -0.40020000       1.11680000      -0.93560000
C       -1.05820000      -0.09520000      -0.71240000
C       -1.01380000      -0.47650000       0.75930000
O       -0.49630000       0.27840000       1.55540000
C       -1.57630000      -1.82660000       1.18170000
N       -2.64140000      -2.29740000       0.32870000
C       -4.02250000      -1.81370000       0.55920000
C       -4.54030000      -3.22650000       0.20100000
C       -3.08970000      -3.70140000       0.45570000
H       -0.11230000       1.41170000      -0.05650000
H       -2.11250000      -0.04930000      -1.02690000
H       -0.61180000      -0.91580000      -1.29650000
H       -0.73880000      -2.53570000       1.10800000
H       -1.84580000      -1.76470000       2.25150000
H       -4.21180000      -1.55490000       1.61380000
H       -4.33070000      -0.97220000      -0.06970000
H       -5.32040000      -3.64650000       0.83550000
H       -4.83400000      -3.31420000      -0.84610000
H       -2.63330000      -4.39380000      -0.25910000
H       -2.96090000      -4.10410000       1.47320000
