23
Properties=species:S:1:pos:R:3 gdb_53115=T pbc="F F F"
C        0.01130000       1.57750000      -0.02650000
C        0.00670000       0.12090000      -0.00860000
C        0.01110000      -1.08510000      -0.00340000
C        0.01790000      -2.53700000       0.00110000
C        0.24840000      -3.19710000       1.41540000
C        1.02080000      -2.45130000       2.48900000
C       -1.28790000      -3.35730000       1.54590000
C       -1.40950000      -3.20920000       0.00760000
C       -2.60030000      -2.47750000      -0.58570000
H        1.01930000       1.97540000       0.13710000
H       -0.34390000       1.96590000      -0.98770000
H       -0.63640000       1.99030000       0.75500000
H        0.68830000      -2.89900000      -0.78550000
H        0.70170000      -4.18040000       1.24680000
H        0.61750000      -1.44510000       2.63660000
H        0.96660000      -2.98550000       3.44430000
H        2.07880000      -2.34960000       2.22290000
H       -1.67250000      -4.27100000       2.00670000
H       -1.72820000      -2.49370000       2.05700000
H       -1.30830000      -4.19500000      -0.45990000
H       -2.68910000      -1.46910000      -0.17110000
H       -2.51010000      -2.38300000      -1.67360000
H       -3.52970000      -3.01810000      -0.37350000
