23
Properties=species:S:1:pos:R:3 gdb_119705=T pbc="F F F"
C       -0.01620000       1.59940000       0.07490000
C       -0.02040000       0.06920000       0.11170000
C       -1.41600000      -0.53330000      -0.11610000
C       -1.41650000      -2.03830000      -0.10280000
C       -0.82050000      -2.91800000      -1.21730000
C       -1.99840000      -3.92660000      -1.05300000
C       -2.57910000      -3.05650000       0.06640000
C       -1.55310000      -2.84540000       1.14530000
O       -0.58280000      -3.80090000       1.47700000
H        0.98830000       2.00070000       0.24180000
H       -0.36770000       1.97400000      -0.89310000
H       -0.67350000       2.01620000       0.84660000
H        0.66800000      -0.31890000      -0.64990000
H        0.36690000      -0.28170000       1.07620000
H       -2.10420000      -0.15840000       0.65360000
H       -1.81160000      -0.17530000      -1.07750000
H       -0.83650000      -2.41700000      -2.18870000
H        0.18330000      -3.30610000      -1.03040000
H       -2.64090000      -3.96590000      -1.93490000
H       -1.72640000      -4.94810000      -0.77080000
H       -3.63410000      -2.87440000       0.24380000
H       -1.92190000      -2.27190000       1.99800000
H       -1.02840000      -4.54100000       1.90260000
