17
Properties=species:S:1:pos:R:3 gdb_123909=T pbc="F F F"
C       -0.02460000       1.44060000       0.06510000
C        1.43450000       1.95550000      -0.00550000
N        2.27510000       1.47860000       1.09640000
C        1.98450000       0.13180000       1.41610000
C        0.91620000      -0.55830000       0.87340000
N        1.00160000      -1.83110000       1.34100000
N        2.06760000      -2.01490000       2.15620000
C        2.66360000      -0.82590000       2.20350000
N       -0.10930000      -0.02940000       0.08080000
H       -0.49680000       1.81850000       0.98030000
H       -0.60450000       1.81300000      -0.78370000
H        1.87830000       1.61520000      -0.95080000
H        1.44760000       3.04910000      -0.01370000
H        2.20480000       2.08670000       1.90440000
H        0.38380000      -2.60130000       1.15300000
H        3.55700000      -0.69620000       2.79680000
H       -0.11610000      -0.41130000      -0.85930000
