15
Properties=species:S:1:pos:R:3 gdb_51857=T pbc="F F F"
O       -0.18820000       0.06530000      -0.02450000
C       -0.11080000       1.25330000      -0.06230000
O        1.05290000       1.90400000       0.19860000
C        1.05970000       3.31030000       0.04020000
C        2.31900000       3.94900000       0.62760000
O        2.48790000       5.14810000      -0.12670000
C        2.18230000       4.86490000      -1.48200000
C        1.16630000       3.72880000      -1.44230000
O        0.58880000       3.20770000      -2.35540000
H       -0.94820000       1.93790000      -0.28320000
H        0.15670000       3.76550000       0.46960000
H        2.23370000       4.22740000       1.67840000
H        3.16870000       3.26100000       0.50370000
H        1.78560000       5.76310000      -1.96330000
H        3.06670000       4.53020000      -2.04880000
