17
Properties=species:S:1:pos:R:3 gdb_33758=T pbc="F F F"
N        0.04750000      -1.10210000      -0.02760000
C        0.02130000       0.05350000      -0.00600000
C       -0.04410000       1.49390000       0.01700000
C       -0.65410000       2.42090000       1.11520000
C       -0.00740000       3.32820000       0.02860000
N        1.19500000       2.38510000      -0.05580000
C       -0.66620000       2.43760000      -1.03430000
C       -0.65670000       2.42220000      -2.51290000
C       -1.97480000       2.44520000      -1.73450000
H       -1.74210000       2.43010000       1.21850000
H       -0.14440000       2.39260000       2.08200000
H        0.11540000       4.41010000       0.02770000
H        1.65660000       2.36180000       0.86070000
H       -0.35770000       3.32410000      -3.03650000
H       -0.38580000       1.50060000      -3.01710000
H       -2.57200000       1.53880000      -1.73010000
H       -2.55540000       3.36220000      -1.74180000
