15
Properties=species:S:1:pos:R:3 gdb_48760=T pbc="F F F"
O       -0.40790000       0.59430000      -0.91760000
C       -0.01350000       1.23690000       0.01930000
C        1.28300000       1.98270000       0.03680000
C        1.90740000       2.48970000       1.31520000
C        2.77710000       3.68940000       0.88510000
O        3.54380000       4.27480000       1.59720000
C        2.49430000       4.02790000      -0.59270000
C        1.64320000       2.89070000      -1.09560000
O        2.24820000       1.61480000      -0.95290000
H       -0.61100000       1.34240000       0.95280000
H        1.15270000       2.83060000       2.03490000
H        2.52860000       1.74320000       1.81780000
H        1.96880000       4.98850000      -0.65130000
H        3.43570000       4.13260000      -1.13950000
H        0.98130000       2.99930000      -1.95030000
