17
Properties=species:S:1:pos:R:3 gdb_4099=T pbc="F F F"
C       -0.04040000       1.55700000      -0.04130000
C       -0.01190000       0.05760000       0.00210000
C       -0.02790000      -0.75280000      -1.07030000
C        0.00840000      -2.21830000      -0.73720000
C        0.05240000      -2.24050000       0.81070000
C        0.03810000      -0.77320000       1.22180000
N        0.06900000      -0.47990000       2.46630000
O        0.05140000       0.90780000       2.70900000
H        0.84090000       1.98460000       0.44460000
H       -0.07670000       1.90690000      -1.07710000
H       -0.90710000       1.95290000       0.49510000
H       -0.06380000      -0.39410000      -2.09420000
H       -0.86910000      -2.74280000      -1.13600000
H        0.88080000      -2.71060000      -1.18520000
H       -0.80430000      -2.76720000       1.23970000
H        0.94950000      -2.73660000       1.19050000
H        0.07890000       0.93830000       3.67050000
