18
Properties=species:S:1:pos:R:3 gdb_24676=T pbc="F F F"
C       -0.04620000       1.49750000       0.06120000
C        1.38860000       2.06340000       0.00470000
C        2.21040000       1.36080000      -1.03270000
C        3.27480000       1.72210000      -1.82170000
C        3.70590000       0.55900000      -2.53050000
C        2.89460000      -0.47860000      -2.14950000
N        1.98100000       0.01080000      -1.23790000
C        0.92380000      -0.67290000      -0.62810000
C       -0.04300000      -0.01150000       0.01090000
H       -0.54920000       1.85120000       0.96690000
H       -0.63190000       1.88570000      -0.78560000
H        1.37410000       3.13930000      -0.19060000
H        1.85390000       1.93080000       0.99290000
H        3.70810000       2.70950000      -1.87870000
H        4.51750000       0.49900000      -3.23900000
H        2.85930000      -1.51130000      -2.45800000
H        0.95910000      -1.75150000      -0.72420000
H       -0.85400000      -0.56610000       0.46770000
