19
Properties=species:S:1:pos:R:3 gdb_49435=T pbc="F F F"
O       -0.57540000       0.66500000       0.78620000
C        0.13760000       0.93970000      -0.14760000
C        1.24420000       1.96330000      -0.13450000
C        1.43850000       2.89350000      -1.33850000
C        0.51020000       4.09770000      -1.25720000
C       -0.75430000       4.01700000      -0.40060000
C       -0.21950000       3.73870000       1.03140000
C        1.20870000       3.22670000       0.79750000
C        1.74550000       4.05550000      -0.40580000
H        0.02710000       0.40680000      -1.12360000
H        2.17520000       1.40390000       0.03390000
H        1.93150000       2.62730000      -2.26650000
H        0.51440000       4.72530000      -2.14180000
H       -1.31650000       4.95450000      -0.44710000
H       -1.43160000       3.22710000      -0.74380000
H       -0.17470000       4.67010000       1.60670000
H       -0.83270000       3.02430000       1.58300000
H        1.82290000       3.16080000       1.69460000
H        2.56760000       4.75800000      -0.41860000
