19
Properties=species:S:1:pos:R:3 gdb_23448=T pbc="F F F"
O        0.04900000       1.34240000       0.23330000
N        0.09110000      -0.05590000       0.39190000
C       -0.99300000      -0.58570000       0.01570000
C       -2.32040000      -0.13940000      -0.54910000
N       -2.79710000      -1.55740000      -0.47700000
C       -3.05910000      -2.19430000      -1.77460000
C       -1.68210000      -2.53760000      -2.38340000
C       -0.85170000      -2.91910000      -1.14320000
C       -1.43340000      -2.03150000      -0.02000000
H        0.91300000       1.61050000       0.56410000
H       -2.90000000       0.54910000       0.07510000
H       -2.25670000       0.28300000      -1.56170000
H       -3.63670000      -3.11220000      -1.60660000
H       -3.66690000      -1.53670000      -2.40310000
H       -1.73090000      -3.33750000      -3.12670000
H       -1.25200000      -1.65840000      -2.87590000
H       -1.00680000      -3.97310000      -0.88850000
H        0.22170000      -2.76190000      -1.27030000
H       -1.44200000      -2.53930000       0.94910000
