14
Properties=species:S:1:pos:R:3 gdb_130926=T pbc="F F F"
O       -0.43210000       0.73910000       0.88550000
C        0.09610000       1.02840000      -0.15290000
C        1.43410000       1.76300000      -0.25230000
C        1.38120000       2.87560000      -1.26270000
C        1.39590000       4.23060000      -0.90570000
N        1.33200000       5.18070000      -1.82460000
C        1.23970000       4.73430000      -3.08290000
N        1.20900000       3.46320000      -3.47750000
N        1.28640000       2.51820000      -2.54600000
H       -0.34840000       0.77190000      -1.13800000
H        1.71550000       2.11960000       0.74070000
H        2.17170000       1.02200000      -0.58590000
H        1.46580000       4.53780000       0.13590000
H        1.18290000       5.47570000      -3.87400000
