19
Properties=species:S:1:pos:R:3 gdb_70870=T pbc="F F F"
C       -0.08470000       1.45570000       0.04060000
C        0.04740000      -0.03730000       0.00530000
C        0.94270000      -0.87120000      -0.91700000
C        0.09500000      -2.08460000      -0.44220000
O       -0.14750000      -3.18750000      -1.24640000
C        0.47480000      -2.23940000       1.06580000
C       -0.24760000      -0.90670000       1.23540000
O       -0.59910000      -0.28230000       2.41520000
C       -1.05630000      -1.08830000      -0.03370000
H        0.85650000       1.92650000       0.34810000
H       -0.35100000       1.85380000      -0.94470000
H       -0.85330000       1.76060000       0.75590000
H        0.74220000      -0.64010000      -1.96790000
H        2.02480000      -0.89470000      -0.73440000
H        0.67890000      -3.67220000      -1.35300000
H       -0.09000000      -3.06150000       1.51780000
H        1.53680000      -2.31240000       1.33000000
H       -1.25700000      -0.82730000       2.86080000
H       -2.10970000      -1.03190000      -0.26610000
