14
Properties=species:S:1:pos:R:3 gdb_3579=T pbc="F F F"
C       -0.16210000       1.57860000      -0.06290000
N        0.16250000       0.15310000       0.03960000
C        1.37670000      -0.52000000      -0.30320000
C        2.68690000       0.17060000       0.25460000
O        2.32560000       1.38650000       0.91720000
C        2.15110000       0.14620000       1.60950000
C        0.82230000      -0.54530000       1.09880000
H        0.52630000       2.10010000      -0.73130000
H       -1.17890000       1.67230000      -0.46260000
H       -0.12200000       2.07070000       0.91120000
H        1.38480000      -1.29170000      -1.06590000
H        3.69880000       0.07010000      -0.11810000
H        2.63580000       0.02180000       2.56990000
H        0.31630000      -1.34050000       1.63630000
