17
Properties=species:S:1:pos:R:3 gdb_125765=T pbc="F F F"
C       -0.15940000       1.54770000      -0.14020000
C       -0.07150000       0.05990000      -0.00910000
N       -0.08660000      -0.68060000      -1.09340000
O        0.01100000      -2.01910000      -0.62750000
C        0.07010000      -2.00200000       0.70480000
N        0.12540000      -3.19920000       1.36340000
C        0.02620000      -0.71490000       1.18230000
C        0.08480000      -0.31840000       2.62160000
O        1.06730000      -1.07160000       3.34860000
H        0.69580000       2.03760000       0.33800000
H       -0.17550000       1.82710000      -1.19530000
H       -1.06640000       1.93380000       0.33670000
H        0.47230000      -3.97670000       0.82120000
H        0.52390000      -3.11650000       2.28970000
H        0.26670000       0.76170000       2.71530000
H       -0.85510000      -0.52990000       3.14510000
H        1.91740000      -0.90170000       2.92710000
