15
Properties=species:S:1:pos:R:3 gdb_55676=T pbc="F F F"
N       -0.04100000       1.31020000      -0.05770000
C        0.05380000      -0.01490000       0.23130000
O        1.05650000      -0.54180000       0.66220000
C       -1.25090000      -0.80770000       0.01690000
N       -1.02160000      -2.23920000      -0.03200000
C       -0.68340000      -2.88750000       1.17320000
O       -0.40880000      -4.04550000       1.29540000
C       -1.03970000      -2.87840000      -1.27920000
O       -0.84960000      -4.04140000      -1.48990000
H        0.76590000       1.89340000       0.09440000
H       -0.86660000       1.72460000      -0.45350000
H       -1.93620000      -0.56420000       0.83750000
H       -1.74690000      -0.49610000      -0.90670000
H       -0.72380000      -2.17490000       2.01760000
H       -1.27470000      -2.14860000      -2.08210000
