14
Properties=species:S:1:pos:R:3 gdb_42645=T pbc="F F F"
O        0.02380000       0.05130000       0.21410000
C       -0.01800000       1.23230000       0.09920000
C       -1.06030000       2.29110000      -0.02880000
C       -0.40110000       3.53430000       0.61110000
C        0.94510000       3.05240000       1.14170000
N        1.09480000       2.20640000      -0.11720000
C        0.01160000       3.11690000      -0.76300000
C        0.03080000       3.68550000      -2.05010000
C        0.05220000       4.17920000      -3.14700000
H       -2.12040000       2.23140000      -0.23280000
H       -1.00560000       4.38920000       0.88920000
H        1.70360000       3.83730000       1.15270000
H        0.97890000       2.47400000       2.07040000
H        0.07580000       4.61020000      -4.11720000
