21
Properties=species:S:1:pos:R:3 gdb_117687=T pbc="F F F"
C        0.05010000       1.65310000       0.05330000
C       -0.00780000       0.12420000       0.03020000
O        0.67340000      -0.29790000       1.21210000
C       -1.45370000      -0.41300000       0.02360000
C       -2.29180000      -0.00120000       1.22870000
O       -3.50830000      -0.73520000       1.16230000
C        0.71750000      -0.43230000      -1.23010000
C        2.12870000      -0.08230000      -1.31690000
C        3.29300000       0.20460000      -1.39830000
H        1.08650000       1.98730000      -0.03050000
H       -0.52470000       2.07630000      -0.77580000
H       -0.35630000       2.03630000       0.99190000
H        0.73500000      -1.25950000       1.19780000
H       -1.96470000      -0.10150000      -0.89510000
H       -1.42400000      -1.51090000       0.00390000
H       -1.73410000      -0.22210000       2.14950000
H       -2.48590000       1.08160000       1.20930000
H       -4.04360000      -0.49310000       1.92340000
H        0.61290000      -1.52650000      -1.23450000
H        0.19250000      -0.07840000      -2.12650000
H        4.32210000       0.45700000      -1.46510000
