17
Properties=species:S:1:pos:R:3 gdb_47697=T pbc="F F F"
N       -0.06660000       1.10110000      -0.94990000
C       -0.01350000       0.13220000      -0.11610000
N       -1.15470000      -0.24670000       0.55290000
C       -1.37450000      -1.61280000       0.98850000
C       -0.67210000      -1.88540000       2.31100000
N        0.77550000      -1.85160000       2.20140000
C        1.62960000      -1.33000000       1.27210000
O        2.83290000      -1.50760000       1.35600000
N        1.14390000      -0.60740000       0.16910000
H        0.85560000       1.35670000      -1.29440000
H       -1.95440000       0.25930000       0.20420000
H       -2.44820000      -1.74580000       1.14130000
H       -1.05450000      -2.34510000       0.23380000
H       -1.02700000      -1.15130000       3.04740000
H       -0.95800000      -2.88180000       2.66910000
H        1.29850000      -2.31300000       2.92910000
H        1.93710000      -0.34050000      -0.39560000
