17
Properties=species:S:1:pos:R:3 gdb_85202=T pbc="F F F"
O        0.00200000       1.41990000      -0.13920000
C        0.04610000       0.02050000       0.05030000
C        0.21870000      -0.39350000       1.54500000
C       -1.31400000      -0.54600000       1.60330000
O       -2.11450000      -0.55780000       2.48920000
C       -1.41470000      -0.52780000       0.06470000
C       -2.52640000       0.27910000      -0.61890000
C       -3.81810000      -0.39350000      -0.57020000
C       -4.87290000      -0.96820000      -0.54170000
H        0.88100000       1.77730000       0.02080000
H        0.72450000      -0.46190000      -0.66270000
H        0.72710000      -1.35430000       1.67620000
H        0.66290000       0.34670000       2.21510000
H       -1.42230000      -1.56300000      -0.29580000
H       -2.59350000       1.26670000      -0.15230000
H       -2.24100000       0.45610000      -1.66330000
H       -5.81150000      -1.46260000      -0.50390000
