16
Properties=species:S:1:pos:R:3 gdb_52289=T pbc="F F F"
O       -0.25080000       0.38900000       0.70320000
C        0.12600000       1.09650000      -0.19180000
C        1.28450000       2.06790000      -0.06230000
O        1.54540000       2.60320000      -1.34790000
C        2.57470000       3.54990000      -1.35600000
C        2.73570000       4.27730000      -2.71740000
N        2.49390000       5.53340000      -1.99680000
C        2.22020000       4.96090000      -0.78070000
O        1.83250000       5.39240000       0.27250000
H       -0.35200000       1.10220000      -1.19640000
H        1.01820000       2.85700000       0.65520000
H        2.16010000       1.53440000       0.34070000
H        3.50950000       3.13960000      -0.94810000
H        3.71940000       4.20600000      -3.18910000
H        1.95030000       4.00620000      -3.42840000
H        2.37560000       6.48010000      -2.32640000
