25
Properties=species:S:1:pos:R:3 gdb_111309=T pbc="F F F"
C        1.23330000       0.90950000       0.89720000
C        0.13430000       0.56560000      -0.11440000
C        0.66840000      -0.21790000      -1.31200000
C        1.14890000      -1.66260000      -1.09710000
C        0.00680000      -2.57430000      -0.74120000
C        0.19150000      -2.16980000      -2.17500000
C       -0.31140000      -0.73710000      -2.45010000
C       -1.81080000      -0.48940000      -2.27920000
C        0.14600000      -0.25210000      -3.82780000
H        1.70410000       0.00200000       1.29020000
H        2.02030000       1.51760000       0.43660000
H        0.83260000       1.47120000       1.74680000
H       -0.65510000      -0.00220000       0.39150000
H       -0.33820000       1.49020000      -0.47100000
H        1.46280000       0.37390000      -1.78160000
H        2.17700000      -1.95630000      -0.92040000
H        0.29130000      -3.59700000      -0.51330000
H       -0.83870000      -2.22020000      -0.15810000
H        0.37860000      -2.90400000      -2.95150000
H       -2.18880000      -0.84120000      -1.31580000
H       -2.04770000       0.57790000      -2.35880000
H       -2.37340000      -1.01000000      -3.06290000
H       -0.41380000      -0.75290000      -4.62680000
H       -0.01060000       0.82740000      -3.93690000
H        1.20990000      -0.45730000      -3.98710000
