18
Properties=species:S:1:pos:R:3 gdb_102216=T pbc="F F F"
C        0.20850000       1.40010000      -0.24660000
O       -0.09970000       0.03820000      -0.00280000
C        0.59700000      -0.52520000       1.07710000
C       -0.03450000      -1.89830000       1.39080000
C       -1.39260000      -1.77530000       1.90140000
C       -2.50920000      -1.66690000       2.33670000
C       -3.86390000      -1.54490000       2.85510000
C        2.03920000      -0.67990000       0.76570000
N        3.16200000      -0.79260000       0.51680000
H        1.26410000       1.53490000      -0.51850000
H       -0.41960000       1.71750000      -1.08070000
H       -0.01540000       2.02300000       0.63160000
H        0.52080000       0.11620000       1.96940000
H       -0.01450000      -2.49010000       0.46850000
H        0.60570000      -2.41510000       2.11520000
H       -4.50620000      -2.34650000       2.47460000
H       -3.88030000      -1.59710000       3.94920000
H       -4.31600000      -0.59140000       2.56070000
