16
Properties=species:S:1:pos:R:3 gdb_24566=T pbc="F F F"
O       -0.06800000       1.28380000      -0.21410000
C        0.93070000       2.19630000       0.00090000
C        2.23040000       2.12530000      -0.29970000
C        3.09920000       1.03290000      -0.70680000
C        3.41110000      -0.08100000      -0.01310000
C        2.90060000      -0.49840000       1.27570000
C        1.62090000      -0.66610000       1.66930000
N        0.49300000      -0.76810000       0.89670000
C       -0.13510000      -0.03680000       0.09530000
H        0.48890000       3.14180000       0.29730000
H        2.72670000       3.09460000      -0.24020000
H        3.70170000       1.24440000      -1.58930000
H        4.23740000      -0.67440000      -0.40400000
H        3.65500000      -0.77740000       2.00880000
H        1.44770000      -1.00560000       2.68930000
H       -0.98850000      -0.44480000      -0.44360000
