21
Properties=species:S:1:pos:R:3 gdb_101125=T pbc="F F F"
C       -0.16270000       1.57970000      -0.11790000
C       -0.08490000       0.05160000      -0.12940000
C        0.90420000      -0.49200000      -1.16890000
O        2.23030000      -0.01200000      -0.95650000
C        0.88630000      -1.99620000      -1.22090000
C        1.48510000      -3.00910000      -0.22150000
C        1.63540000      -4.01860000      -1.41450000
C        1.02800000      -2.95120000      -2.33320000
O       -0.26590000      -2.62510000      -1.79930000
H        0.82370000       2.01910000       0.05350000
H       -0.53110000       1.95960000      -1.07700000
H       -0.83930000       1.93510000       0.66480000
H        0.21110000      -0.31930000       0.86350000
H       -1.06920000      -0.38330000      -0.33670000
H        0.61970000      -0.12220000      -2.16140000
H        2.46390000      -0.19660000      -0.04000000
H        2.45410000      -2.70100000       0.17880000
H        0.82390000      -3.30370000       0.59660000
H        2.67960000      -4.24240000      -1.64390000
H        1.06650000      -4.94870000      -1.34680000
H        1.17710000      -2.78780000      -3.39460000
