20
Properties=species:S:1:pos:R:3 gdb_120672=T pbc="F F F"
O        0.20020000       1.38540000       0.20610000
C        0.04040000      -0.02180000       0.28090000
C       -1.25350000      -0.50930000      -0.37890000
C       -1.38670000      -2.01330000      -0.33330000
N       -1.85740000      -2.59290000       0.94930000
C       -2.68820000      -2.70430000      -0.23870000
C       -4.11980000      -2.19410000      -0.36710000
O       -4.49070000      -3.38740000      -1.09740000
C       -3.17650000      -3.96350000      -0.95110000
H       -0.49450000       1.78800000       0.73680000
H        0.90730000      -0.44430000      -0.24030000
H        0.07750000      -0.38090000       1.32020000
H       -2.11230000      -0.06000000       0.13580000
H       -1.27820000      -0.16060000      -1.41840000
H       -0.60080000      -2.55940000      -0.85710000
H       -1.39090000      -3.47600000       1.14470000
H       -4.65970000      -2.10220000       0.58340000
H       -4.26870000      -1.28550000      -0.96360000
H       -2.71260000      -4.19360000      -1.91890000
H       -3.19040000      -4.87300000      -0.33320000
