14
Properties=species:S:1:pos:R:3 gdb_42613=T pbc="F F F"
O        0.06560000       0.04280000      -0.18990000
C       -0.00260000       1.21470000       0.02560000
C       -1.11140000       2.20500000       0.10600000
C       -0.75970000       3.35070000       1.01610000
C        0.24620000       3.22470000       2.13850000
C        1.48380000       2.66180000       1.42300000
O        2.56560000       2.45120000       1.89710000
C        1.03520000       2.37920000      -0.00050000
N       -0.12570000       3.31480000      -0.31060000
H       -2.10270000       2.10060000      -0.32120000
H       -1.54910000       4.09140000       1.10120000
H        0.48040000       4.20580000       2.56360000
H       -0.05470000       2.56920000       2.96090000
H        1.81850000       2.32310000      -0.75200000
