16
Properties=species:S:1:pos:R:3 gdb_26026=T pbc="F F F"
N        0.73560000      -0.12440000      -0.48300000
C       -0.23030000       0.20130000       0.41190000
O       -0.38410000       1.30980000       0.88110000
C       -1.16650000      -0.94180000       0.84770000
N       -0.94880000      -2.23070000       0.22410000
C       -1.35970000      -2.62080000      -1.03700000
C       -0.84930000      -3.87910000      -1.21830000
N       -0.13550000      -4.27670000      -0.11110000
C       -0.21520000      -3.26980000       0.72700000
H        1.35690000       0.60350000      -0.79520000
H        0.81270000      -1.04300000      -0.88420000
H       -1.05640000      -1.04830000       1.92980000
H       -2.19040000      -0.60640000       0.66380000
H       -1.96870000      -1.98010000      -1.65370000
H       -0.96140000      -4.52340000      -2.07710000
H        0.22950000      -3.22270000       1.71070000
