18
Properties=species:S:1:pos:R:3 gdb_61776=T pbc="F F F"
C       -0.05700000       1.74370000      -0.20070000
C       -0.04900000       0.22100000      -0.03320000
N       -1.39910000      -0.31590000       0.01040000
C       -1.94380000      -0.85260000       1.14180000
O       -1.38960000      -0.91320000       2.21670000
C        0.78080000      -0.47460000      -1.15810000
N        2.19460000      -0.11670000      -1.23110000
C        0.66880000      -1.93930000      -1.03940000
N        0.58030000      -3.08640000      -0.93900000
H        0.95580000       2.15550000      -0.17480000
H       -0.52150000       2.03640000      -1.15000000
H       -0.62550000       2.20180000       0.61180000
H        0.39280000      -0.04130000       0.93260000
H       -1.96330000      -0.29780000      -0.82560000
H       -2.96980000      -1.22760000       0.96450000
H        0.33180000      -0.20270000      -2.12460000
H        2.29830000       0.86740000      -1.45060000
H        2.65210000      -0.28710000      -0.34050000
