18
Properties=species:S:1:pos:R:3 gdb_81305=T pbc="F F F"
O       -0.04990000       1.37540000       0.05190000
C        0.02100000      -0.03290000       0.00570000
C       -1.41120000      -0.61200000      -0.09720000
C       -1.29670000      -0.44210000      -1.63840000
C        0.23770000      -0.61210000      -1.43070000
C        0.56120000      -2.09380000      -1.30440000
O        1.47500000      -2.64990000      -1.88060000
N       -0.29610000      -2.74680000      -0.45490000
C       -1.38380000      -2.09640000       0.26800000
H        0.83100000       1.72430000      -0.12030000
H        0.66860000      -0.42740000       0.80110000
H       -2.20010000      -0.08500000       0.44200000
H       -1.80740000      -1.16690000      -2.27690000
H       -1.54450000       0.57330000      -1.94580000
H        0.94750000      -0.13050000      -2.10280000
H       -0.13680000      -3.73630000      -0.34130000
H       -1.24290000      -2.21180000       1.35170000
H       -2.34430000      -2.56310000       0.00990000
