15
Properties=species:S:1:pos:R:3 gdb_22212=T pbc="F F F"
C       -0.18110000       1.39080000       0.07190000
C       -0.19150000      -0.07110000      -0.26400000
N       -0.16880000      -1.02060000       0.59980000
O       -0.12750000      -0.54400000       1.89510000
C       -0.25080000      -0.49910000      -1.68270000
N       -0.33960000       0.34880000      -2.61720000
O       -0.31200000      -1.85920000      -1.93690000
C        0.64410000      -2.70950000      -1.44300000
O        0.53460000      -3.88820000      -1.55370000
H       -0.17690000       1.98920000      -0.83650000
H       -1.06100000       1.63880000       0.67400000
H        0.69540000       1.62680000       0.68320000
H       -0.13270000      -1.35260000       2.42140000
H       -0.39290000      -0.12210000      -3.52170000
H        1.50340000      -2.18270000      -1.00550000
