17
Properties=species:S:1:pos:R:3 gdb_72120=T pbc="F F F"
O       -0.07760000       1.35720000       0.02420000
C        0.03080000      -0.03890000       0.04000000
C        0.66140000      -0.73330000      -1.23190000
C       -0.36120000      -1.87180000      -1.30650000
O       -1.59610000      -1.10180000      -1.42290000
C       -1.35260000      -0.78520000      -0.03900000
C       -0.73710000      -2.17840000       0.21620000
C        0.29180000      -1.97580000       1.28540000
C        0.69090000      -0.69880000       1.23710000
H        0.79390000       1.73310000      -0.13520000
H        0.56400000      -0.09990000      -2.11690000
H        1.69920000      -1.03920000      -1.08480000
H       -0.25070000      -2.65700000      -2.05340000
H       -2.19460000      -0.35860000       0.50640000
H       -1.44000000      -3.00440000       0.30730000
H        0.64580000      -2.74370000       1.96180000
H        1.44530000      -0.21700000       1.84890000
