20
Properties=species:S:1:pos:R:3 gdb_50078=T pbc="F F F"
O       -0.31670000       0.30450000       0.75880000
C        0.29720000       0.67530000      -0.21080000
C        1.37610000       1.69940000      -0.16070000
N        2.33470000       1.68100000      -1.28620000
C        1.45330000       2.83400000      -1.15270000
C        0.44050000       3.08990000      -2.23400000
C       -0.78860000       3.98700000      -1.90660000
C       -0.64760000       4.62630000      -3.31440000
C        0.80960000       4.09420000      -3.36650000
H        0.10210000       0.26330000      -1.22450000
H        1.73380000       1.91010000       0.84430000
H        3.27120000       1.88260000      -0.94750000
H        1.88430000       3.74400000      -0.73120000
H        0.11940000       2.14100000      -2.67120000
H       -1.72730000       3.48880000      -1.65360000
H       -0.55410000       4.70540000      -1.11390000
H       -1.28630000       4.12910000      -4.04990000
H       -0.79780000       5.70470000      -3.39910000
H        1.52460000       4.84470000      -3.01180000
H        1.17890000       3.68150000      -4.30780000
