19
Properties=species:S:1:pos:R:3 gdb_37412=T pbc="F F F"
C       -0.03910000       1.56160000       0.05120000
C        1.50580000       1.41630000      -0.00040000
C        1.76650000       0.79510000       1.38900000
C        0.82480000      -0.44920000       1.24460000
C        1.74600000      -1.52990000       0.68100000
O        1.26660000      -2.25510000      -0.45310000
C        2.08630000      -1.08600000      -0.67570000
C        1.25010000       0.14860000      -0.92190000
C        0.00120000       0.01730000       0.00240000
H       -0.47470000       2.05700000       0.92390000
H       -0.46150000       1.98220000      -0.86490000
H        2.15400000       2.23290000      -0.31880000
H        2.80770000       0.50960000       1.56590000
H        1.46100000       1.47490000       2.18930000
H        0.25640000      -0.71780000       2.13540000
H        2.44040000      -2.06190000       1.32650000
H        3.04600000      -1.26880000      -1.14960000
H        1.04040000       0.40840000      -1.96010000
H       -0.85580000      -0.58980000      -0.27790000
