21
Properties=species:S:1:pos:R:3 gdb_84988=T pbc="F F F"
C       -0.02540000       1.51390000       0.01570000
C        0.05900000      -0.01080000       0.06520000
C        0.72970000      -0.64920000      -1.17210000
C        1.44410000      -1.88820000      -0.64810000
O        2.13660000      -2.65740000      -1.26880000
C        1.24420000      -1.99410000       0.87570000
C        0.10730000      -2.99120000       1.16920000
O        2.44150000      -2.42880000       1.48740000
C        0.88460000      -0.55240000       1.25960000
H        0.97290000       1.95800000      -0.07240000
H       -0.61980000       1.85390000      -0.83870000
H       -0.48820000       1.91270000       0.92450000
H       -0.96090000      -0.40690000       0.14670000
H        0.04620000      -0.89290000      -1.99060000
H        1.49830000       0.01180000      -1.59450000
H        0.35820000      -3.97360000       0.75830000
H       -0.00810000      -3.08510000       2.25270000
H       -0.85040000      -2.67520000       0.74270000
H        2.86740000      -3.01340000       0.84360000
H        1.81740000       0.01490000       1.36210000
H        0.34580000      -0.48220000       2.20870000
