19
Properties=species:S:1:pos:R:3 gdb_127475=T pbc="F F F"
C        0.10320000       1.38650000      -0.03970000
N        0.02050000      -0.05150000       0.01860000
N        0.05750000      -0.76450000      -1.14480000
C        0.05060000      -2.03350000      -0.75870000
N        0.11450000      -3.09630000      -1.65810000
C        0.02840000      -2.15570000       0.65320000
N       -0.04970000      -3.39280000       1.34550000
C        0.02340000      -0.85070000       1.12040000
C        0.00630000      -0.32740000       2.51770000
H        1.13210000       1.74870000       0.08710000
H       -0.25830000       1.70100000      -1.01940000
H       -0.52330000       1.83670000       0.73550000
H       -0.21560000      -2.83720000      -2.57870000
H       -0.38280000      -3.90540000      -1.30540000
H        0.85980000      -3.83400000       1.44750000
H       -0.44600000      -3.28680000       2.27180000
H        0.82310000       0.37980000       2.70220000
H       -0.93160000       0.18480000       2.76620000
H        0.12590000      -1.15510000       3.22270000
