17
Properties=species:S:1:pos:R:3 gdb_45543=T pbc="F F F"
O       -0.01940000      -0.06240000      -0.33460000
C        0.00670000       1.12650000      -0.10600000
N       -1.15270000       1.91090000       0.13610000
C       -0.81070000       3.31260000       0.07950000
C       -1.17830000       4.29320000       1.20890000
C       -0.00170000       5.30340000       1.13090000
N        1.12720000       4.50300000       0.61120000
C        0.69370000       3.27580000       0.21510000
C        1.16930000       2.02970000       0.03590000
H       -1.99800000       1.58060000      -0.30580000
H       -1.08380000       3.76050000      -0.88960000
H       -2.15040000       4.77600000       1.08880000
H       -1.16410000       3.76120000       2.16510000
H       -0.23280000       6.13050000       0.44770000
H        0.24610000       5.73790000       2.10350000
H        2.04360000       4.61800000       1.01140000
H        2.18430000       1.66780000       0.09110000
