21
Properties=species:S:1:pos:R:3 gdb_38960=T pbc="F F F"
C        0.13930000       1.67020000       0.19160000
C        1.33550000       0.78460000      -0.02250000
O        2.06960000       0.45530000       1.12780000
C        1.47140000      -0.67920000       1.77800000
C        1.46220000      -0.46680000       3.29140000
C        0.20300000       0.37900000       3.54330000
C       -0.83490000      -0.20320000       2.55880000
C       -0.02250000      -0.70150000       1.32900000
C       -0.02710000       0.16440000       0.06830000
H        0.03250000       2.14090000       1.16210000
H       -0.20840000       2.27020000      -0.64350000
H        1.92240000       0.83070000      -0.93490000
H        2.01720000      -1.58500000       1.48080000
H        1.36920000      -1.44190000       3.78540000
H        2.38770000      -0.00210000       3.64040000
H       -0.13470000       0.34470000       4.58280000
H        0.41470000       1.42680000       3.30610000
H       -1.34870000      -1.05060000       3.02610000
H       -1.60470000       0.52020000       2.27710000
H       -0.33140000      -1.71460000       1.05830000
H       -0.52940000      -0.21640000      -0.81320000
