17
Properties=species:S:1:pos:R:3 gdb_111664=T pbc="F F F"
C        0.10680000       0.99040000       0.49010000
O       -0.15920000      -0.01450000      -0.47930000
C       -1.36830000      -0.65660000      -0.28860000
C       -1.49280000      -2.06440000      -0.75060000
C       -0.17780000      -2.79920000      -0.97890000
O        0.51360000      -2.83040000       0.27760000
C       -0.24140000      -2.32380000       1.29130000
O        0.11930000      -2.34890000       2.43350000
C       -1.52200000      -1.77310000       0.74020000
H        1.07000000       1.43250000       0.22960000
H       -0.66530000       1.77290000       0.47260000
H        0.16150000       0.56440000       1.49950000
H       -2.24690000      -0.01770000      -0.39460000
H       -2.36770000      -2.38250000      -1.30380000
H       -0.35110000      -3.83040000      -1.30230000
H        0.46630000      -2.29600000      -1.70450000
H       -2.39890000      -1.81620000       1.37160000
