23
Properties=species:S:1:pos:R:3 gdb_80480=T pbc="F F F"
C       -0.14010000       1.54600000      -0.04520000
C        0.03230000       0.04400000      -0.00010000
C        1.36370000      -0.61210000      -0.25710000
O        2.47900000       0.22680000      -0.10000000
C        2.94210000       0.12530000       1.25800000
C        3.74020000       1.37400000       1.58980000
C        1.68080000      -0.19140000       2.12710000
C        1.12510000       0.94820000       2.99190000
C        0.71700000      -0.78280000       1.09020000
H        0.80360000       2.05830000       0.14970000
H       -0.47400000       1.84840000      -1.04410000
H       -0.88840000       1.89590000       0.67300000
H       -0.80820000      -0.49850000      -0.42970000
H        1.49280000      -1.41000000      -0.98370000
H        3.61400000      -0.74630000       1.32020000
H        3.12000000       2.27300000       1.54280000
H        4.16930000       1.30000000       2.59400000
H        4.56110000       1.48970000       0.87680000
H        1.95090000      -1.00310000       2.81300000
H        0.87190000       1.83750000       2.41230000
H        0.21450000       0.61810000       3.50230000
H        1.84510000       1.24370000       3.76200000
H        0.22750000      -1.71460000       1.35100000
