19
Properties=species:S:1:pos:R:3 gdb_94209=T pbc="F F F"
O        0.08060000       1.38600000      -0.09400000
C        0.08600000      -0.00760000      -0.02650000
C        0.45430000      -0.71200000       1.31200000
C       -0.73870000      -1.68190000       1.09180000
C       -1.32150000      -0.70950000       0.03620000
O       -2.26320000       0.16420000       0.63840000
C       -1.89800000      -1.29270000      -1.23320000
C       -3.30660000      -1.69480000      -1.32460000
O       -2.85680000      -0.45710000      -1.90060000
H       -0.66500000       1.66390000       0.45630000
H        0.69080000      -0.37690000      -0.86140000
H        1.45410000      -1.14320000       1.39380000
H        0.28630000      -0.04350000       2.16020000
H       -0.43940000      -2.63550000       0.64760000
H       -1.39730000      -1.87480000       1.94020000
H       -2.74730000       0.56010000      -0.10380000
H       -1.17890000      -1.76950000      -1.89910000
H       -3.60630000      -2.45280000      -2.04520000
H       -3.94580000      -1.58830000      -0.45130000
