22
Properties=species:S:1:pos:R:3 gdb_117789=T pbc="F F F"
C        0.03600000       1.40620000       0.25550000
N       -0.00320000      -0.00710000      -0.11170000
C       -1.34850000      -0.56830000      -0.11650000
C       -1.29490000      -2.12080000      -0.08820000
C       -0.64250000      -2.67250000      -1.38250000
N       -0.62730000      -2.49590000       1.15720000
C       -0.35360000      -3.90980000       1.36950000
C       -2.69150000      -2.60800000      -0.03690000
N       -3.78270000      -2.98800000      -0.02260000
H        1.06620000       1.76800000       0.19430000
H       -0.59490000       2.05280000      -0.37750000
H       -0.30000000       1.52260000       1.29090000
H        0.41710000      -0.12030000      -1.02770000
H       -1.85260000      -0.24180000       0.79760000
H       -1.96350000      -0.24090000      -0.97070000
H        0.40690000      -2.36630000      -1.42570000
H       -0.67760000      -3.76340000      -1.40800000
H       -1.16040000      -2.30070000      -2.27170000
H        0.21340000      -1.93010000       1.21750000
H        0.09120000      -4.03320000       2.36100000
H       -1.29380000      -4.47130000       1.35890000
H        0.32570000      -4.37250000       0.63490000
