13
Properties=species:S:1:pos:R:3 gdb_42609=T pbc="F F F"
N       -0.09270000       1.27700000       0.17210000
C       -0.04310000       0.04490000      -0.04270000
O        1.11040000      -0.73530000      -0.08160000
C        0.70750000      -2.03180000      -0.45590000
C       -0.66060000      -2.00350000      -0.96600000
C       -0.40850000      -2.75630000       0.35630000
C       -1.21500000      -1.69780000       1.01510000
O       -1.77540000      -1.52500000       2.04400000
N       -1.17950000      -0.82140000      -0.21350000
H        0.84210000       1.65530000       0.32510000
H        1.51020000      -2.63790000      -0.85370000
H       -1.10420000      -2.33330000      -1.89390000
H       -0.35900000      -3.81480000       0.57640000
