23
Properties=species:S:1:pos:R:3 gdb_113821=T pbc="F F F"
C       -0.05530000       1.56500000      -0.29000000
C        0.02150000       0.16090000       0.32050000
C       -1.32870000      -0.52020000       0.34030000
N       -1.78020000      -1.15420000      -0.91080000
C       -1.55120000      -1.99300000       0.28150000
C       -0.45070000      -2.99960000       0.18740000
N       -0.20360000      -3.82050000       1.38820000
C       -0.67460000      -4.47410000       0.15590000
C       -2.02910000      -5.14000000       0.19800000
H        0.92690000       2.04720000      -0.30540000
H       -0.42620000       1.51500000      -1.31850000
H       -0.73350000       2.20970000       0.28050000
H        0.72990000      -0.44520000      -0.25250000
H        0.40700000       0.21710000       1.34670000
H       -2.08290000       0.03060000       0.90470000
H       -2.77420000      -1.00680000      -1.05980000
H       -2.42600000      -2.34770000       0.82150000
H        0.41440000      -2.65270000      -0.37260000
H        0.79260000      -3.96720000       1.52330000
H        0.06940000      -5.02980000      -0.41530000
H       -2.72760000      -4.58530000       0.82830000
H       -2.45520000      -5.22120000      -0.80790000
H       -1.94480000      -6.15100000       0.61120000
