20
Properties=species:S:1:pos:R:3 gdb_86809=T pbc="F F F"
C       -0.33750000       1.39240000      -0.03600000
C        0.01050000      -0.09260000       0.01760000
C        1.18220000      -0.52020000      -0.92230000
C        2.12380000      -0.47350000       0.29360000
C        0.89840000      -0.50640000       1.23330000
O        3.03330000      -1.57480000       0.34950000
C        3.99670000      -1.48650000       1.30120000
N        4.75980000      -2.62160000       1.29420000
O        4.13820000      -0.55600000       2.06000000
H        0.55280000       2.02080000       0.08080000
H       -0.80460000       1.65410000      -0.99190000
H       -1.03660000       1.66050000       0.76350000
H       -0.90030000      -0.68530000      -0.10110000
H        1.06670000      -1.54770000      -1.27700000
H        1.41900000       0.12670000      -1.77110000
H        2.69040000       0.45450000       0.38170000
H        0.91920000       0.15510000       2.10190000
H        0.69340000      -1.52830000       1.56350000
H        4.71710000      -3.22700000       0.49210000
H        5.62490000      -2.57480000       1.80430000
