19
Properties=species:S:1:pos:R:3 gdb_64426=T pbc="F F F"
C       -0.06380000       1.57070000       0.03930000
C        0.03850000       0.05260000      -0.01540000
O       -1.28820000      -0.47090000      -0.02140000
C        0.77760000      -0.43040000      -1.27150000
O        0.83050000      -1.85340000      -1.26240000
C        1.73960000      -2.35480000      -0.29200000
C        1.58560000      -1.70620000       1.07260000
O        2.17400000      -0.40590000       1.23310000
C        0.74770000      -0.50560000       1.21350000
H        0.92910000       2.01980000       0.13090000
H       -0.54820000       1.95420000      -0.86350000
H       -0.66530000       1.87450000       0.90090000
H       -1.20750000      -1.38780000      -0.31680000
H        0.20790000      -0.14640000      -2.16010000
H        1.78600000       0.00060000      -1.32830000
H        1.53930000      -3.42800000      -0.21750000
H        2.77740000      -2.22230000      -0.63680000
H        1.72870000      -2.36170000       1.93110000
H        0.25230000      -0.30260000       2.16300000
