20
Properties=species:S:1:pos:R:3 gdb_6214=T pbc="F F F"
C        0.04410000       1.61450000      -0.03250000
C        0.03950000       0.08230000       0.02830000
C        0.73750000      -0.60000000      -1.17710000
C        1.50200000      -1.82660000      -0.62000000
C        0.78320000      -3.15780000      -0.87890000
O        2.79070000      -1.84650000      -1.24760000
C        1.58120000      -1.50840000       0.86220000
C        0.79420000      -0.49360000       1.20680000
H        1.06900000       1.99910000      -0.07160000
H       -0.48550000       1.97420000      -0.92100000
H       -0.44590000       2.04870000       0.84580000
H       -1.00990000      -0.24500000       0.08480000
H        0.04330000      -0.86780000      -1.97830000
H        1.48620000       0.07690000      -1.59930000
H        0.75130000      -3.36420000      -1.95340000
H        1.30310000      -3.98810000      -0.38440000
H       -0.24090000      -3.13610000      -0.49350000
H        3.23930000      -2.65480000      -0.97710000
H        2.19750000      -2.09430000       1.53760000
H        0.66720000      -0.10980000       2.21470000
