18
Properties=species:S:1:pos:R:3 gdb_40391=T pbc="F F F"
C        0.48110000       1.44130000       0.04350000
O        1.06970000       0.21330000      -0.39320000
C       -0.28640000       0.18450000       0.05770000
C       -0.55870000      -0.57250000       1.30420000
C        0.48770000      -0.93300000       2.32150000
C       -0.25880000      -2.03800000       1.61660000
C       -1.71470000      -2.20470000       2.13990000
N       -1.93900000      -1.24850000       3.25630000
C       -2.01090000      -0.79180000       1.84450000
H        0.86870000       1.83300000       0.98220000
H        0.30690000       2.17730000      -0.74030000
H       -1.01180000       0.03370000      -0.74540000
H        1.50050000      -0.79310000       1.95780000
H        0.32520000      -0.74180000       3.37420000
H        0.23170000      -2.76250000       0.97990000
H       -2.32830000      -3.08860000       2.02710000
H       -2.89970000      -1.38220000       3.57150000
H       -2.90250000      -0.32300000       1.44770000
