20
Properties=species:S:1:pos:R:3 gdb_92230=T pbc="F F F"
C       -0.05820000       1.58160000       0.11200000
N        0.00670000       0.14030000       0.09720000
C       -1.21940000      -0.64690000       0.32910000
C       -0.40720000      -1.62280000       1.20720000
O        0.08270000      -2.78280000       0.55020000
C        1.48550000      -2.71740000       0.42250000
C        2.06370000      -1.83830000      -0.64590000
C        1.98880000      -1.34520000       0.78810000
C        0.73470000      -0.56980000       1.17370000
H        0.94710000       2.00000000      -0.00620000
H       -0.66680000       1.93540000      -0.72710000
H       -0.49360000       1.99370000       1.04340000
H       -1.98200000      -0.11330000       0.91890000
H       -1.68270000      -1.06120000      -0.57240000
H       -0.85440000      -1.89930000       2.16650000
H        1.98390000      -3.63330000       0.72310000
H        3.04270000      -2.09610000      -1.03640000
H        1.38050000      -1.37480000      -1.34810000
H        2.89490000      -1.20420000       1.36480000
H        0.87010000       0.02180000       2.08820000
