20
Properties=species:S:1:pos:R:3 gdb_6469=T pbc="F F F"
C       -0.57940000       1.72040000       0.03520000
C       -0.05390000       0.28830000       0.03890000
C       -1.18530000      -0.70580000      -0.21550000
O       -1.71660000      -0.45880000      -1.51000000
C        1.18470000      -0.00720000      -0.86610000
C        1.80700000      -0.82000000       0.29950000
O        3.18700000      -0.73540000       0.55530000
C        0.80130000      -0.14470000       1.27120000
H        0.23280000       2.43750000       0.19280000
H       -1.06520000       1.95210000      -0.91660000
H       -1.31630000       1.87000000       0.83390000
H       -0.80750000      -1.73750000      -0.13790000
H       -1.95720000      -0.58060000       0.56240000
H       -2.43430000      -1.07890000      -1.66680000
H        1.00330000      -0.51290000      -1.81660000
H        1.76260000       0.90410000      -1.05790000
H        1.60350000      -1.88930000       0.19570000
H        3.41770000       0.19680000       0.62810000
H        1.25430000       0.72460000       1.76090000
H        0.32810000      -0.76580000       2.03800000
