14
Properties=species:S:1:pos:R:3 gdb_133025=T pbc="F F F"
C       -0.00030000       1.46220000      -0.01360000
N       -0.01260000       0.01050000       0.02810000
C        0.51910000      -0.65080000      -0.90220000
O        1.13580000       0.02240000      -2.00070000
C        1.69960000      -0.68030000      -2.98700000
N        1.76670000      -1.95330000      -3.08810000
C        1.18760000      -2.64850000      -2.05570000
F        1.27220000      -3.95970000      -2.18700000
C        0.58120000      -2.09010000      -0.99220000
H        1.02110000       1.86520000      -0.03030000
H       -0.51580000       1.85330000      -0.90090000
H       -0.50640000       1.84670000       0.87440000
H        2.12540000      -0.03300000      -3.74800000
H        0.13670000      -2.67320000      -0.19900000
