15
Properties=species:S:1:pos:R:3 gdb_21950=T pbc="F F F"
O        0.07720000       1.43140000       0.19160000
C        0.06500000       0.01750000       0.15180000
C       -1.35550000      -0.54360000      -0.05740000
C       -1.37000000      -2.03530000      -0.08960000
N       -0.81490000      -2.80850000      -1.01070000
C       -1.08070000      -4.06580000      -0.56140000
N       -1.75960000      -4.13050000       0.57140000
N       -1.93230000      -2.81720000       0.85890000
H       -0.09220000       1.75660000      -0.69830000
H        0.72880000      -0.38410000      -0.62530000
H        0.45350000      -0.31650000       1.11940000
H       -2.00950000      -0.16780000       0.73620000
H       -1.74910000      -0.16780000      -1.00920000
H       -0.76790000      -4.95720000      -1.08430000
H       -2.43750000      -2.54860000       1.68760000
