19
Properties=species:S:1:pos:R:3 gdb_49065=T pbc="F F F"
O       -0.27090000       0.09990000      -0.13730000
C       -0.02970000       1.26140000       0.07960000
C        1.32590000       1.90560000      -0.01090000
C        1.55480000       3.13360000       0.91920000
C        1.91820000       4.02150000      -0.29870000
C        1.54260000       2.86330000      -1.26250000
C        2.70530000       2.20270000      -2.00100000
O        3.45210000       1.53340000      -0.99580000
C        2.49440000       0.91720000      -0.13850000
H       -0.84780000       1.96780000       0.35610000
H        0.63900000       3.44920000       1.42880000
H        2.33590000       2.99690000       1.67070000
H        1.32450000       4.93120000      -0.40980000
H        2.97680000       4.28750000      -0.34960000
H        0.67280000       3.04300000      -1.89720000
H        2.32940000       1.48960000      -2.75310000
H        3.36980000       2.91760000      -2.49540000
H        2.98880000       0.70340000       0.81260000
H        2.12430000      -0.02400000      -0.56770000
