20
Properties=species:S:1:pos:R:3 gdb_87838=T pbc="F F F"
C       -0.20880000       1.36620000      -0.06470000
N        0.03220000      -0.06490000       0.05630000
C        1.42410000      -0.50800000      -0.09950000
C        0.76110000      -0.53220000       1.22320000
C        1.22670000       0.21000000       2.50280000
C        0.89990000      -1.06570000       3.29710000
C       -0.56550000      -1.40330000       3.13210000
C        0.39890000      -1.75780000       2.03260000
O        0.62540000      -3.05670000       1.61920000
H        0.60440000       1.99120000       0.33990000
H       -0.33810000       1.62070000      -1.12160000
H       -1.13300000       1.62670000       0.46150000
H        1.56860000      -1.43010000      -0.65620000
H        2.18790000       0.25280000      -0.26200000
H        2.28900000       0.46440000       2.48880000
H        0.65210000       1.09740000       2.78880000
H        1.49450000      -1.47370000       4.10370000
H       -0.89830000      -2.25820000       3.71280000
H       -1.30870000      -0.61860000       3.00760000
H       -0.17950000      -3.38040000       1.19990000
