15
Properties=species:S:1:pos:R:3 gdb_124897=T pbc="F F F"
C       -0.30650000       1.36700000      -0.75570000
C       -0.06080000       0.04110000      -0.07350000
C        1.08250000      -0.80720000      -0.46790000
O        1.11280000      -0.05150000       0.74540000
C       -1.24200000      -0.60490000       0.54870000
C       -1.35660000      -1.27400000       1.72670000
O       -2.61630000      -1.67290000       1.87590000
N       -3.32130000      -1.21470000       0.71990000
N       -2.50080000      -0.60640000      -0.01350000
H        0.62280000       1.75050000      -1.18240000
H       -1.04780000       1.25200000      -1.55130000
H       -0.69130000       2.09990000      -0.04000000
H        1.01890000      -1.88690000      -0.34630000
H        1.75570000      -0.46000000      -1.25040000
H       -0.65430000      -1.50980000       2.50800000
