17
Properties=species:S:1:pos:R:3 gdb_29629=T pbc="F F F"
C       -0.06790000       1.45190000       0.02170000
N       -0.00430000      -0.00620000       0.03070000
C        0.01930000      -0.65300000      -1.25570000
O        0.02650000       0.03210000      -2.26970000
C        0.02490000      -2.08770000      -1.19620000
C        0.02570000      -2.75280000      -0.00340000
C        0.02600000      -2.06840000       1.22690000
C        0.00630000      -0.69100000       1.21470000
N       -0.07280000       0.05900000       2.37720000
H        0.86680000       1.89570000       0.38690000
H       -0.20970000       1.74840000      -1.01600000
H       -0.89980000       1.80200000       0.63870000
H        0.03140000      -2.60140000      -2.14830000
H        0.03560000      -3.83890000       0.00450000
H        0.04300000      -2.59490000       2.17200000
H        0.11730000      -0.47310000       3.21320000
H        0.40700000       0.94680000       2.37450000
