13
Properties=species:S:1:pos:R:3 gdb_132656=T pbc="F F F"
N        0.04360000       1.32450000       0.12670000
C        0.01720000      -0.04000000       0.04060000
N       -1.18200000      -0.63170000       0.08340000
C       -1.16870000      -1.96840000       0.05110000
C       -0.00570000      -2.70290000      -0.02560000
F       -0.00960000      -4.03790000      -0.05830000
C        1.19410000      -1.98300000      -0.07720000
O        2.35730000      -2.64130000      -0.16390000
N        1.20810000      -0.66150000      -0.04630000
H        0.88880000       1.78270000      -0.16940000
H       -0.82710000       1.79570000      -0.05400000
H       -2.12620000      -2.48240000       0.08480000
H        3.04910000      -1.96440000      -0.18290000
