20
Properties=species:S:1:pos:R:3 gdb_12570=T pbc="F F F"
O       -0.14820000       1.49390000      -0.19590000
C        0.00270000       0.08920000       0.00020000
C       -1.41340000      -0.47080000       0.14280000
C       -1.53090000      -1.85440000       0.80750000
C       -0.51200000      -2.93450000       0.37120000
C        0.08600000      -2.79320000      -1.03290000
O        1.14470000      -1.84770000      -1.08170000
C        0.75970000      -0.49850000      -1.20480000
H        0.72910000       1.88090000      -0.28330000
H        0.58070000      -0.11510000       0.91670000
H       -1.99170000       0.25140000       0.72820000
H       -1.87290000      -0.48580000      -0.85340000
H       -1.45790000      -1.73550000       1.89470000
H       -2.54720000      -2.21950000       0.62030000
H        0.34020000      -2.94880000       1.06020000
H       -0.98410000      -3.92100000       0.45140000
H        0.53960000      -3.74540000      -1.32740000
H       -0.68370000      -2.54990000      -1.78310000
H        0.14320000      -0.33950000      -2.10580000
H        1.69610000       0.05710000      -1.34300000
