21
Properties=species:S:1:pos:R:3 gdb_60034=T pbc="F F F"
C       -0.15120000       1.52200000      -0.07120000
C       -0.00850000      -0.00200000       0.00850000
C        0.72110000      -0.56310000      -1.21880000
C        0.72140000      -0.44700000       1.29010000
N        0.03830000      -0.08450000       2.53470000
C       -1.07630000      -0.85530000       2.89010000
N       -1.87220000      -0.58450000       3.83780000
C        0.54380000       0.96870000       3.29740000
O        0.10470000       1.39070000       4.33170000
H        0.83190000       2.00590000      -0.11850000
H       -0.70510000       1.81190000      -0.96920000
H       -0.68570000       1.92560000       0.79340000
H       -1.01650000      -0.43930000       0.03670000
H        1.73870000      -0.16070000      -1.28890000
H        0.79600000      -1.65520000      -1.18070000
H        0.19680000      -0.29530000      -2.14080000
H        0.86560000      -1.53380000       1.27490000
H        1.72100000      -0.00080000       1.31520000
H       -1.15980000      -1.73070000       2.23300000
H       -2.58150000      -1.31410000       3.90140000
H        1.45330000       1.38220000       2.81610000
