18
Properties=species:S:1:pos:R:3 gdb_79512=T pbc="F F F"
C       -0.01910000       1.41950000      -0.07000000
N       -0.01450000      -0.01160000       0.08980000
C       -1.14580000      -0.92200000      -0.00890000
C       -0.82180000      -2.17490000       0.86090000
C       -1.57870000      -3.06690000      -0.14920000
C       -0.79950000      -2.06260000      -1.02690000
C        0.44720000      -2.20600000      -0.07050000
C        1.09630000      -0.82320000       0.00430000
O        2.26100000      -0.49380000      -0.02570000
H        1.02240000       1.74900000      -0.04480000
H       -0.46170000       1.73020000      -1.02620000
H       -0.56570000       1.91520000       0.74070000
H       -2.12740000      -0.45020000       0.01260000
H       -0.81980000      -2.22660000       1.95100000
H       -1.25940000      -4.10980000      -0.20670000
H       -2.67030000      -2.98850000      -0.15760000
H       -0.77220000      -1.98950000      -2.11550000
H        1.09500000      -3.07860000      -0.11530000
