20
Properties=species:S:1:pos:R:3 gdb_71488=T pbc="F F F"
C        0.02830000       1.54600000      -0.03900000
C        0.02510000       0.03910000      -0.02960000
C        0.56550000      -0.96150000      -1.06010000
N        0.01520000      -1.91660000       0.00050000
C        0.60830000      -0.93470000       1.05150000
C       -0.33620000      -0.98410000       2.22860000
C       -1.53200000      -0.98530000       1.64110000
C       -1.20670000      -0.93870000       0.15620000
C       -2.34920000      -1.05620000      -0.82400000
H        1.04860000       1.93910000      -0.10760000
H       -0.53790000       1.93720000      -0.89160000
H       -0.42590000       1.93580000       0.87880000
H        0.07720000      -1.03890000      -2.03420000
H        1.65160000      -1.02960000      -1.17650000
H        1.68640000      -1.01460000       1.20050000
H       -0.06840000      -1.03020000       3.27430000
H       -2.52330000      -1.03420000       2.07040000
H       -3.08210000      -0.26160000      -0.64680000
H       -2.02660000      -0.98500000      -1.86550000
H       -2.85850000      -2.01710000      -0.69620000
