23
Properties=species:S:1:pos:R:3 gdb_64194=T pbc="F F F"
C       -0.56960000       1.40330000       0.23450000
C       -0.01080000      -0.00080000       0.02890000
C       -1.11230000      -0.95870000      -0.43860000
C        1.27600000      -0.11770000      -0.84960000
C        1.86900000      -1.11340000       0.18190000
C        0.81120000      -0.64110000       1.20180000
C        1.24110000       0.16340000       2.45140000
C        0.56600000      -0.97200000       3.24100000
O        0.16700000      -1.63470000       2.02490000
H        0.20690000       2.11130000       0.54200000
H       -1.00790000       1.78170000      -0.69630000
H       -1.35890000       1.41360000       0.99570000
H       -1.56130000      -0.59320000      -1.36880000
H       -0.72710000      -1.96600000      -0.62130000
H       -1.89920000      -1.04530000       0.31620000
H        1.13730000      -0.48350000      -1.87000000
H        1.83370000       0.82230000      -0.89040000
H        1.69570000      -2.15670000      -0.09430000
H        2.91900000      -0.99670000       0.46310000
H        2.31970000       0.26260000       2.58900000
H        0.77520000       1.14290000       2.56510000
H        1.23650000      -1.59560000       3.84480000
H       -0.29700000      -0.68540000       3.85380000
