14
Properties=species:S:1:pos:R:3 gdb_28190=T pbc="F F F"
O        0.07810000       1.30520000       0.23790000
C        0.06840000      -0.03130000      -0.00010000
C        0.08110000      -0.78010000      -1.15230000
C        0.05880000      -2.15670000      -0.72030000
C        0.03450000      -2.12750000       0.64970000
N        0.03960000      -0.84510000       1.12490000
O        0.01130000      -3.33280000       1.23880000
C        0.02160000      -4.21710000       0.16410000
C        0.04970000      -3.56290000      -1.03060000
H        0.09950000       1.76090000      -0.60890000
H        0.10320000      -0.38770000      -2.15670000
H        0.02560000      -0.51740000       2.07410000
H        0.00580000      -5.25680000       0.44110000
H        0.06200000      -4.03960000      -1.99870000
