15
Properties=species:S:1:pos:R:3 gdb_44617=T pbc="F F F"
O       -0.03790000       0.04090000       0.25650000
C       -0.01130000       1.20800000       0.00790000
O       -1.14480000       1.94720000      -0.19260000
C       -0.81030000       3.26990000      -0.55120000
C       -0.00490000       4.11160000       0.42350000
O        0.36800000       3.53690000       1.64670000
C        1.44680000       2.62820000       1.39840000
C        1.20610000       2.14460000      -0.04730000
C        0.68000000       3.41350000      -0.72570000
H       -1.54360000       3.72010000      -1.20790000
H       -0.16360000       5.18400000       0.45550000
H        2.41490000       3.14260000       1.47990000
H        1.39660000       1.82660000       2.13930000
H        2.06810000       1.66330000      -0.50590000
H        1.17410000       3.88760000      -1.56260000
