21
Properties=species:S:1:pos:R:3 gdb_93038=T pbc="F F F"
O        0.20150000       1.28850000      -0.34480000
C        0.06350000      -0.07820000       0.03290000
C        0.80060000      -0.39100000       1.36140000
C        0.01160000      -0.08820000       2.61620000
C       -1.05430000      -0.80100000       2.99010000
C       -1.56510000      -1.95590000       2.19560000
C       -2.94490000      -1.94920000       1.57460000
C       -1.72410000      -1.81500000       0.69490000
C       -1.42410000      -0.47270000       0.05300000
H       -0.28350000       1.81700000       0.29880000
H        0.58040000      -0.62710000      -0.76260000
H        1.06550000      -1.45490000       1.35570000
H        1.74020000       0.16830000       1.34690000
H        0.34100000       0.74160000       3.23750000
H       -1.57250000      -0.55960000       3.91670000
H       -1.23660000      -2.93110000       2.55310000
H       -3.50140000      -2.88000000       1.56100000
H       -3.55980000      -1.06480000       1.71000000
H       -1.45770000      -2.68460000       0.09980000
H       -1.95980000       0.30490000       0.61100000
H       -1.81430000      -0.43700000      -0.96990000
