19
Properties=species:S:1:pos:R:3 gdb_33765=T pbc="F F F"
C       -0.01220000      -1.20900000      -0.07380000
C       -0.00530000      -0.00660000      -0.02750000
C        0.00400000       1.44010000       0.02820000
C       -0.21230000       2.13830000       1.41590000
C        0.70590000       3.27480000       0.87420000
C        1.38510000       2.18270000      -0.00570000
C       -0.12130000       4.16610000      -0.02750000
C       -0.90870000       3.58200000      -0.93040000
C       -0.94650000       2.07450000      -1.02010000
H       -0.01630000      -2.27000000      -0.11130000
H       -1.23520000       2.39910000       1.69650000
H        0.26470000       1.56320000       2.21260000
H        1.32180000       3.82750000       1.58360000
H        2.13880000       1.61540000       0.54460000
H        1.77380000       2.48280000      -0.98140000
H       -0.06000000       5.24490000       0.07520000
H       -1.53180000       4.15260000      -1.61280000
H       -0.65860000       1.73800000      -2.02500000
H       -1.96710000       1.70160000      -0.86060000
