13
Properties=species:S:1:pos:R:3 gdb_50791=T pbc="F F F"
N        0.30900000       1.22880000       0.00410000
C        0.02030000      -0.00340000       0.00100000
N       -1.28050000      -0.50640000       0.01090000
C       -2.48570000       0.19120000       0.02730000
O       -2.60590000       1.39130000       0.03610000
C       -3.62970000      -0.71100000       0.03300000
C       -4.62730000      -1.39910000       0.03850000
C       -5.73960000      -2.17850000       0.04470000
C       -6.72650000      -2.87420000       0.05010000
H        1.32140000       1.34350000      -0.00490000
H        0.74140000      -0.83050000      -0.00980000
H       -1.36500000      -1.51120000       0.00590000
H       -7.59740000      -3.48260000       0.05490000
