15
Properties=species:S:1:pos:R:3 gdb_123601=T pbc="F F F"
C       -0.02980000       1.51000000      -0.06530000
C        1.53120000       1.36940000       0.01880000
C        1.15040000       0.16050000       0.94450000
N       -0.07950000      -0.03060000       0.03020000
C        0.64910000      -0.30610000      -1.18940000
N        0.55170000      -1.13250000      -2.18030000
O        1.65260000      -0.77840000      -2.99330000
C        2.34280000       0.25510000      -2.41890000
C        1.74960000       0.60040000      -1.26420000
H       -0.48590000       1.94140000       0.82830000
H       -0.47250000       1.92310000      -0.97320000
H        2.19620000       2.17610000       0.31960000
H        1.82080000      -0.69930000       0.98920000
H        0.81590000       0.45290000       1.94220000
H        3.20210000       0.58700000      -2.97960000
