23
Properties=species:S:1:pos:R:3 gdb_119076=T pbc="F F F"
C        1.23630000      -0.87900000       1.29890000
C        0.24020000      -0.30070000       0.28860000
C        0.69370000      -0.38920000      -1.16750000
C        2.01720000       0.31810000      -1.43580000
O        2.00270000       1.59910000      -0.85210000
C        3.15780000       2.34890000      -1.13950000
C        0.61030000      -1.78810000      -1.83270000
C       -0.50260000      -1.16210000      -2.69360000
O       -0.35690000       0.11520000      -2.04550000
H        1.49740000      -1.91730000       1.06370000
H        2.16010000      -0.29380000       1.32360000
H        0.81160000      -0.86820000       2.30710000
H       -0.72130000      -0.82120000       0.36600000
H        0.05130000       0.75360000       0.51080000
H        2.84630000      -0.28730000      -1.02690000
H        2.16640000       0.38760000      -2.52560000
H        3.27760000       2.51390000      -2.22190000
H        3.05140000       3.31730000      -0.64470000
H        4.07000000       1.85640000      -0.76560000
H        1.50470000      -2.09750000      -2.37850000
H        0.30130000      -2.59600000      -1.16710000
H       -0.29640000      -1.10490000      -3.76970000
H       -1.50640000      -1.58190000      -2.55250000
