19
Properties=species:S:1:pos:R:3 gdb_82901=T pbc="F F F"
C       -0.21520000       1.57530000       0.03680000
C        0.04720000       0.06950000      -0.01530000
C        0.98920000      -0.50480000      -1.11220000
C        2.28660000       0.26430000      -0.78350000
C        2.42800000      -0.45830000       0.56720000
O        2.66300000      -1.78000000       0.05280000
C        1.34680000      -1.94510000      -0.44270000
O        0.60570000      -1.96670000       0.76500000
C        0.88700000      -0.59840000       1.09720000
H        0.65930000       2.16950000       0.31160000
H       -0.57870000       1.94410000      -0.92850000
H       -0.99050000       1.78680000       0.78060000
H       -0.91720000      -0.44340000      -0.02930000
H        0.63430000      -0.52640000      -2.14120000
H        3.13870000       0.02010000      -1.41860000
H        2.15530000       1.34490000      -0.75840000
H        3.19500000      -0.17030000       1.28230000
H        1.23150000      -2.86110000      -1.01660000
H        0.68330000      -0.39440000       2.14650000
