22
Properties=species:S:1:pos:R:3 gdb_10222=T pbc="F F F"
C        0.07180000       1.53820000       0.13500000
C       -0.04190000       0.02400000      -0.07190000
C       -1.48800000      -0.50880000      -0.07760000
C       -2.23260000      -0.13850000      -1.37420000
O       -3.62940000      -0.32960000      -1.29960000
C       -1.46920000      -2.02390000       0.13460000
O       -2.79600000      -2.53140000       0.15860000
C       -2.85260000      -3.93320000       0.30010000
H        1.12040000       1.85110000       0.14930000
H       -0.42710000       2.10120000      -0.65940000
H       -0.37920000       1.83880000       1.08670000
H        0.45000000      -0.25840000      -1.01290000
H        0.52110000      -0.48200000       0.72310000
H       -2.04100000      -0.05820000       0.75750000
H       -2.08140000       0.92140000      -1.60320000
H       -1.78630000      -0.71050000      -2.20940000
H       -3.75680000      -1.21260000      -0.92830000
H       -0.90070000      -2.51000000      -0.67800000
H       -0.96250000      -2.27350000       1.08140000
H       -2.35540000      -4.44660000      -0.53700000
H       -2.37740000      -4.26000000       1.23720000
H       -3.90660000      -4.21950000       0.31850000
