16
Properties=species:S:1:pos:R:3 gdb_130939=T pbc="F F F"
O       -0.30240000       0.02210000      -0.06110000
C       -0.04050000       1.18980000       0.06850000
C        1.32780000       1.80030000      -0.12250000
C        1.30330000       2.94860000      -1.15570000
C        2.60500000       3.68270000      -1.21970000
C        3.51330000       3.79980000      -2.24580000
N        4.49750000       4.57170000      -1.72600000
N        4.23210000       4.91960000      -0.45500000
N        3.08810000       4.38190000      -0.14840000
H       -0.83230000       1.92570000       0.34790000
H        1.65060000       2.21780000       0.84060000
H        2.03200000       1.01560000      -0.41100000
H        1.05570000       2.55330000      -2.14610000
H        0.50710000       3.65400000      -0.88700000
H        3.53880000       3.41900000      -3.25280000
H        5.34830000       4.89440000      -2.15840000
