22
Properties=species:S:1:pos:R:3 gdb_58094=T pbc="F F F"
C       -0.06290000       1.61070000       0.04700000
C       -0.03470000       0.08100000       0.05020000
O        0.63100000      -0.41180000       1.21470000
C       -1.43630000      -0.59030000       0.02990000
C       -1.25100000      -2.12480000      -0.03000000
C       -2.24080000      -0.22050000       1.28890000
C       -2.11520000      -0.18920000      -1.29570000
N       -3.44690000       0.09660000      -1.24610000
O       -1.49830000      -0.16250000      -2.34730000
H        0.96100000       2.00240000       0.02990000
H       -0.57150000       1.99250000      -0.84210000
H       -0.55390000       2.00470000       0.94150000
H        0.48370000      -0.25700000      -0.85560000
H        1.51390000      -0.03090000       1.22980000
H       -0.69970000      -2.46770000       0.84750000
H       -2.22120000      -2.63160000      -0.05750000
H       -0.69420000      -2.40540000      -0.92780000
H       -2.53960000       0.83200000       1.30260000
H       -3.14280000      -0.83590000       1.38190000
H       -1.62750000      -0.40610000       2.17340000
H       -3.98280000       0.06940000      -0.39860000
H       -3.91370000       0.29800000      -2.11510000
