21
Properties=species:S:1:pos:R:3 gdb_79798=T pbc="F F F"
C        0.27220000       1.58870000       0.20210000
C        0.02690000       0.09480000       0.09780000
C        0.65480000      -0.77560000      -1.06180000
C        2.04800000      -1.51130000      -0.83940000
C        3.06180000      -1.13850000       0.25800000
C        2.09630000      -0.56390000       1.29310000
C        0.83470000      -0.89790000       0.95510000
C        0.80800000      -1.96720000      -0.16150000
C        0.12350000      -3.29980000      -0.14380000
H        1.33930000       1.82310000       0.14460000
H       -0.23920000       2.11530000      -0.61110000
H       -0.11300000       1.98840000       1.14680000
H       -1.05240000      -0.10820000       0.07910000
H        0.24790000      -0.78930000      -2.07240000
H        2.39030000      -2.01800000      -1.74180000
H        3.66000000      -2.01730000       0.54140000
H        3.77290000      -0.35070000      -0.02100000
H        2.34140000       0.36460000       1.80070000
H       -0.92490000      -3.20960000       0.16320000
H        0.14260000      -3.75910000      -1.13790000
H        0.61150000      -3.99140000       0.55260000
