17
Properties=species:S:1:pos:R:3 gdb_39845=T pbc="F F F"
C       -0.10890000       1.47110000      -0.01650000
N        1.19470000       0.78720000       0.06240000
C       -0.04380000      -0.00870000       0.01080000
C       -0.33460000      -0.86370000       1.22530000
N       -1.74200000      -1.27950000       1.37610000
C       -0.77280000      -2.20890000       0.75780000
C       -0.78690000      -2.18500000      -0.76260000
O       -1.71570000      -1.26330000      -1.33440000
C       -0.35310000      -0.84810000      -1.20840000
H       -0.39670000       2.01220000       0.88010000
H       -0.39700000       1.95030000      -0.94860000
H        1.65040000       0.79090000      -0.84810000
H        0.28490000      -0.71310000       2.10320000
H       -1.89380000      -1.56380000       2.34190000
H       -0.49690000      -3.12480000       1.26770000
H       -0.60870000      -3.09660000      -1.32580000
H        0.16530000      -0.64610000      -2.14570000
