16
Properties=species:S:1:pos:R:3 gdb_25632=T pbc="F F F"
C       -0.09860000       1.48600000      -0.01910000
C       -0.03540000       0.03360000       0.00910000
C        0.00560000      -1.17180000       0.03360000
C        0.06110000      -2.58380000       0.06160000
C        1.16670000      -3.38270000      -0.02470000
C        2.61740000      -3.12170000      -0.16880000
O        0.74060000      -4.68070000       0.04630000
C       -0.60740000      -4.59520000       0.17250000
N       -1.07630000      -3.39670000       0.18890000
H        0.47380000       1.92810000       0.80420000
H        0.30350000       1.88640000      -0.95670000
H       -1.13360000       1.83270000       0.07280000
H        3.18510000      -3.52990000       0.67490000
H        3.01780000      -3.57140000      -1.08440000
H        2.78350000      -2.04330000      -0.21010000
H       -1.14570000      -5.52720000       0.24560000
