12
Properties=species:S:1:pos:R:3 gdb_21836=T pbc="F F F"
O        0.32510000      -0.08680000      -0.13610000
C        0.53470000       1.05780000      -0.37110000
O        0.38460000       2.02730000       0.59060000
C        0.74600000       3.30010000       0.26420000
C        1.87520000       3.84360000      -0.30790000
C        1.60180000       5.23120000      -0.31860000
N        0.41620000       5.52020000       0.20580000
N       -0.09650000       4.31890000       0.54910000
H        0.85720000       1.48330000      -1.33610000
H        2.76050000       3.32500000      -0.63510000
H        2.23230000       6.02850000      -0.68350000
H       -0.99880000       4.25650000       0.99110000
