15
Properties=species:S:1:pos:R:3 gdb_2718=T pbc="F F F"
O       -0.29470000       1.32360000       0.36340000
C       -0.03470000      -0.02650000       0.02180000
C       -1.37980000      -0.73480000      -0.09480000
C       -1.22980000      -2.20860000      -0.44990000
O       -2.51490000      -2.81000000      -0.65340000
C       -2.98910000      -3.62890000       0.30310000
O       -4.06170000      -4.14850000       0.23850000
H        0.54570000       1.78580000       0.43250000
H        0.51020000      -0.10140000      -0.93380000
H        0.58560000      -0.52130000       0.78790000
H       -1.91850000      -0.63500000       0.85420000
H       -1.98350000      -0.23690000      -0.86030000
H       -0.68200000      -2.33740000      -1.38860000
H       -0.68430000      -2.75230000       0.33350000
H       -2.27500000      -3.76870000       1.13960000
