23
Properties=species:S:1:pos:R:3 gdb_86348=T pbc="F F F"
C       -0.33650000       1.15710000      -1.45480000
C        0.11730000      -0.22210000      -0.98250000
C        1.56940000      -0.61360000      -1.39360000
C        2.04870000      -0.43600000       0.07870000
C        2.91700000       0.79540000       0.32870000
C        0.54680000      -0.36550000       0.51650000
C        0.11040000       0.68290000       1.55110000
C       -1.32060000       0.63210000       1.83220000
C       -2.50220000       0.56680000       2.04640000
H        0.40270000       1.93530000      -1.23590000
H       -0.48800000       1.15350000      -2.54000000
H       -1.28060000       1.44820000      -0.98370000
H       -0.63970000      -0.95490000      -1.27650000
H        1.65620000      -1.64160000      -1.75480000
H        2.04550000       0.04660000      -2.12570000
H        2.56600000      -1.31110000       0.48490000
H        2.47430000       1.70770000      -0.08420000
H        3.08790000       0.96210000       1.39800000
H        3.89650000       0.66810000      -0.14540000
H        0.23170000      -1.34540000       0.88770000
H        0.66680000       0.51850000       2.48360000
H        0.37650000       1.69170000       1.21580000
H       -3.54410000       0.51900000       2.24410000
