19
Properties=species:S:1:pos:R:3 gdb_100449=T pbc="F F F"
C        0.22330000       1.49530000       0.26960000
C        0.23340000      -0.02770000       0.13190000
C        0.49930000      -0.48180000      -1.31930000
O        1.72460000       0.03170000      -1.83290000
C        0.42710000      -1.94040000      -1.43320000
C        0.38480000      -3.14630000      -1.49590000
C        0.32080000      -4.59380000      -1.58740000
C        1.59540000      -5.27360000      -2.04470000
O       -0.69180000      -5.20220000      -1.31440000
H        1.16420000       1.92230000      -0.08600000
H       -0.58810000       1.93880000      -0.31780000
H        0.08070000       1.78970000       1.31320000
H        1.00490000      -0.46760000       0.77710000
H       -0.72180000      -0.45490000       0.45660000
H       -0.27330000      -0.04600000      -1.96600000
H        2.44360000      -0.41140000      -1.36800000
H        2.41730000      -5.03230000      -1.36190000
H        1.44160000      -6.35310000      -2.07740000
H        1.88350000      -4.90450000      -3.03490000
