15
Properties=species:S:1:pos:R:3 gdb_5114=T pbc="F F F"
C        0.01180000       1.45760000       0.00970000
N        0.03360000       0.00970000       0.00190000
C        0.06200000      -0.79820000      -1.11490000
O        0.04170000      -0.17150000      -2.32480000
C        0.10540000      -2.10870000      -0.73080000
C        0.11240000      -2.11650000       0.71080000
C        0.07300000      -0.81030000       1.10950000
O        0.06490000      -0.19690000       2.32640000
H        1.02310000       1.88060000       0.00280000
H       -0.52000000       1.81150000      -0.87470000
H       -0.50380000       1.80170000       0.90740000
H       -0.02870000      -0.84630000      -3.00590000
H        0.13140000      -2.96820000      -1.38230000
H        0.14490000      -2.98310000       1.35270000
H       -0.00280000      -0.87890000       3.00060000
