16
Properties=species:S:1:pos:R:3 gdb_49159=T pbc="F F F"
O       -0.04740000      -0.02290000       0.03460000
C        0.00680000       1.18820000       0.03250000
C        1.24720000       1.95210000      -0.00100000
C        1.43140000       3.28360000      -0.01130000
C        2.93130000       3.42000000      -0.02380000
C        3.52410000       2.31080000      -0.95640000
C        4.65250000       2.16800000       0.06840000
N        3.43830000       2.33790000       0.98740000
C        2.66320000       1.41880000      -0.01010000
H       -0.91660000       1.80800000       0.05240000
H        0.69990000       4.08010000       0.00880000
H        3.40070000       4.40020000       0.05970000
H        3.55970000       2.30380000      -2.05280000
H        5.13830000       1.19390000       0.16740000
H        5.38040000       2.97960000       0.15360000
H        2.83830000       0.34930000       0.08890000
