20
Properties=species:S:1:pos:R:3 gdb_107363=T pbc="F F F"
C       -0.40620000       1.49290000      -0.03300000
C        0.00850000       0.01740000       0.02220000
C        0.81920000      -0.41670000      -1.17830000
C        0.15340000      -0.91300000      -2.41290000
N        0.80800000      -1.87440000      -1.51080000
C        2.14570000      -2.25600000      -1.96180000
C        3.00620000      -0.98440000      -2.04540000
O        4.10150000      -0.89860000      -2.53190000
C        2.21590000       0.14600000      -1.37150000
H        0.46550000       2.15520000      -0.05780000
H       -1.00660000       1.70170000      -0.92480000
H       -1.00190000       1.76350000       0.84360000
H        0.59300000      -0.16930000       0.93310000
H       -0.87780000      -0.62240000       0.08750000
H       -0.92970000      -0.99040000      -2.45160000
H        0.62130000      -0.70660000      -3.37560000
H        2.60060000      -2.93690000      -1.23100000
H        2.12630000      -2.77710000      -2.92400000
H        2.26620000       1.05460000      -1.97720000
H        2.69240000       0.37320000      -0.40880000
