17
Properties=species:S:1:pos:R:3 gdb_14714=T pbc="F F F"
C       -0.05120000       1.56200000       0.06800000
C        0.00160000       0.03330000       0.00290000
C        0.71470000      -0.48100000      -1.25110000
C        0.76090000      -2.02440000      -1.30390000
C        1.43320000      -2.53490000      -2.48580000
C        1.99700000      -2.93440000      -3.47760000
C        2.63270000      -3.39000000      -4.59610000
N        3.17360000      -3.77810000      -5.54840000
H        0.95570000       1.99300000       0.07410000
H       -0.58380000       1.97670000      -0.79470000
H       -0.56500000       1.90220000       0.97200000
H        0.51020000      -0.35620000       0.89470000
H       -1.01820000      -0.37230000       0.03230000
H        0.20960000      -0.10910000      -2.15000000
H        1.73910000      -0.09280000      -1.28700000
H        1.26870000      -2.41060000      -0.41010000
H       -0.26030000      -2.42690000      -1.27290000
