19
Properties=species:S:1:pos:R:3 gdb_91692=T pbc="F F F"
O       -0.16030000       1.56340000       0.17180000
C       -0.11980000       0.16290000      -0.02680000
C        0.44870000      -0.65240000       1.18750000
C       -0.81310000      -1.45890000       1.54850000
C       -1.29020000      -1.91730000       0.14110000
C       -1.55120000      -0.39740000      -0.04680000
C       -1.91380000      -0.33580000       1.48160000
C       -3.30530000      -0.75380000       1.85110000
O       -4.00410000      -0.13620000       2.61750000
H        0.74330000       1.88420000       0.25050000
H        0.40450000      -0.07780000      -0.96260000
H        1.28800000      -1.29900000       0.91390000
H        0.76850000       0.01940000       1.98920000
H       -0.75280000      -2.14210000       2.39590000
H       -0.54990000      -2.38930000      -0.51260000
H       -2.19890000      -2.51830000       0.15050000
H       -2.21830000      -0.00140000      -0.81180000
H       -1.69010000       0.60410000       1.98850000
H       -3.68570000      -1.68780000       1.38050000
