19
Properties=species:S:1:pos:R:3 gdb_62484=T pbc="F F F"
C       -0.01610000       1.48290000       0.09730000
C       -0.06940000      -0.06190000       0.00390000
C       -1.52060000      -0.55040000      -0.07380000
C        0.75650000      -0.50330000      -1.21190000
O        0.44450000      -0.31350000      -2.35930000
C        2.03250000      -1.22500000      -0.75560000
C        2.10110000      -1.05140000       0.76860000
C        0.68530000      -0.65050000       1.20100000
O        0.23420000      -0.77770000       2.31020000
H        1.01010000       1.85770000       0.17320000
H       -0.46820000       1.91480000      -0.79970000
H       -0.56760000       1.81770000       0.98010000
H       -2.01040000      -0.12250000      -0.95200000
H       -1.57300000      -1.64060000      -0.15180000
H       -2.06020000      -0.25170000       0.82840000
H        1.92760000      -2.27910000      -1.03940000
H        2.89810000      -0.84110000      -1.30060000
H        2.42820000      -1.93460000       1.32050000
H        2.77680000      -0.23320000       1.04770000
