20
Properties=species:S:1:pos:R:3 gdb_100131=T pbc="F F F"
C        0.10760000       1.53810000       0.50140000
C        0.03510000       0.12630000      -0.09120000
C        0.90780000      -0.86070000       0.68830000
C       -1.42280000      -0.36110000      -0.11930000
O       -1.90470000      -0.40270000       1.21360000
O        0.35280000       0.14680000      -1.50400000
C        1.66570000       0.45690000      -1.88560000
C        2.54020000      -0.72950000      -1.99750000
N        3.22560000      -1.65320000      -2.10570000
H        1.13800000       1.89000000       0.61030000
H       -0.43840000       2.24330000      -0.13240000
H       -0.35070000       1.53760000       1.49280000
H        0.50900000      -0.96540000       1.69980000
H        0.90280000      -1.84370000       0.20970000
H        1.94440000      -0.52050000       0.76480000
H       -2.00910000       0.32900000      -0.74350000
H       -1.44760000      -1.35190000      -0.59440000
H       -2.80470000      -0.73870000       1.19890000
H        1.61060000       0.92060000      -2.87700000
H        2.14820000       1.18130000      -1.21770000
