14
Properties=species:S:1:pos:R:3 gdb_67421=T pbc="F F F"
O       -0.13460000       1.42260000       0.06330000
C        0.00140000       0.07570000       0.00130000
C       -1.05540000      -0.98750000      -0.08020000
C       -0.40430000      -1.64250000      -1.29460000
C        0.90680000      -0.97700000      -0.80410000
O        1.20920000      -1.68210000       0.42970000
C        0.08280000      -1.04470000       1.01340000
C       -0.16340000      -1.09440000       2.41070000
N       -0.37220000      -1.10050000       3.54930000
H        0.64280000       1.80280000       0.49140000
H       -2.09450000      -0.92690000       0.21450000
H       -0.38680000      -2.73250000      -1.36700000
H       -0.76730000      -1.19180000      -2.22120000
H        1.77790000      -0.81290000      -1.43280000
