17
Properties=species:S:1:pos:R:3 gdb_72975=T pbc="F F F"
C       -0.13710000       1.52630000       0.05750000
C        0.03440000       0.04410000       0.10030000
O       -1.13200000      -0.75300000      -0.07670000
C       -0.64060000      -1.73160000       0.87600000
C        0.66030000      -0.96370000       1.05790000
C        1.26250000      -0.73670000      -0.33490000
O        1.11040000      -1.68810000      -1.34790000
C        2.51490000      -0.02440000      -0.33910000
C        3.58120000       0.53360000      -0.35180000
H        0.82240000       2.02950000       0.19210000
H       -0.54890000       1.82180000      -0.91380000
H       -0.82990000       1.85730000       0.83670000
H       -1.27050000      -1.74450000       1.77150000
H       -0.57480000      -2.73330000       0.44030000
H        1.23140000      -0.84050000       1.96850000
H        1.81600000      -2.33740000      -1.24660000
H        4.51650000       1.03640000      -0.37460000
