20
Properties=species:S:1:pos:R:3 gdb_104917=T pbc="F F F"
C        0.33540000       1.37090000       0.28280000
N       -0.21660000       0.13180000      -0.25430000
C        0.56180000      -0.47600000      -1.29820000
C        1.95090000      -1.08530000      -1.04080000
C        0.78280000      -1.98840000      -1.33740000
C        0.20290000      -2.85370000      -0.22980000
N        0.78650000      -2.54820000      -2.66640000
C        0.38100000       0.19780000      -2.56990000
N        0.22150000       0.79230000      -3.54880000
H        1.35310000       1.26830000       0.69510000
H        0.36950000       2.12510000      -0.50940000
H       -0.32480000       1.74260000       1.07070000
H       -0.42360000      -0.52990000       0.47990000
H        2.70490000      -0.97480000      -1.81020000
H        2.30560000      -1.02390000      -0.01750000
H        0.32580000      -2.42140000       0.76780000
H       -0.86330000      -3.04660000      -0.39480000
H        0.71940000      -3.82000000      -0.22140000
H        1.32220000      -3.41120000      -2.68330000
H       -0.15680000      -2.76840000      -2.97260000
