23
Properties=species:S:1:pos:R:3 gdb_58637=T pbc="F F F"
C        0.21210000       1.36630000       0.55550000
C       -0.14460000      -0.12260000       0.57430000
O        0.12340000      -0.68110000       1.86240000
C       -1.56160000      -0.49090000       0.11870000
C       -2.72410000       0.21860000       0.78060000
C       -2.39960000       0.49320000      -0.66580000
C       -1.68130000      -1.94900000      -0.24600000
C       -1.86660000      -3.02470000       0.79280000
C       -2.96780000      -2.73610000      -0.19570000
H        1.21110000       1.48910000       0.98130000
H        0.22020000       1.77070000      -0.46080000
H       -0.48100000       1.96560000       1.15700000
H        0.55940000      -0.64250000      -0.08780000
H       -0.56450000      -0.36020000       2.45620000
H       -3.62260000      -0.34040000       1.01500000
H       -2.50490000       1.00180000       1.49990000
H       -1.98980000       1.46350000      -0.91900000
H       -3.06400000       0.07830000      -1.41600000
H       -1.02420000      -2.21810000      -1.07130000
H       -1.30110000      -3.94460000       0.69520000
H       -2.01550000      -2.70250000       1.81660000
H       -3.86880000      -2.25830000       0.17290000
H       -3.15000000      -3.44920000      -0.99250000
