20
Properties=species:S:1:pos:R:3 gdb_57659=T pbc="F F F"
C       -0.07940000       1.46990000      -0.23960000
C        0.01880000      -0.02810000       0.07940000
C        0.79190000      -0.30780000       1.37480000
O       -1.29190000      -0.63220000       0.13440000
C       -2.19060000      -0.20920000       1.03980000
N       -3.31010000      -0.78990000       1.12310000
C        0.72840000      -0.72360000      -1.07910000
C        0.25680000      -1.96780000      -1.69550000
O        0.08560000      -0.70070000      -2.34500000
H        0.92120000       1.88320000      -0.39930000
H       -0.66240000       1.61120000      -1.15240000
H       -0.54330000       2.03440000       0.57370000
H        0.33330000       0.19490000       2.23060000
H        0.81810000      -1.38200000       1.57750000
H        1.82050000       0.05580000       1.29120000
H       -1.86180000       0.63860000       1.65080000
H       -3.87430000      -0.34720000       1.84560000
H        1.79620000      -0.49800000      -1.11400000
H        0.97750000      -2.63550000      -2.16540000
H       -0.65900000      -2.42320000      -1.33250000
