13
Properties=species:S:1:pos:R:3 gdb_132457=T pbc="F F F"
N        0.01440000       1.37630000       0.14440000
C       -0.03870000       0.00640000       0.04420000
N       -1.19290000      -0.60000000       0.02670000
C       -1.15940000      -1.96700000      -0.00040000
C       -0.01990000      -2.70270000      -0.03570000
F       -0.04410000      -4.03340000      -0.07250000
C        1.28330000      -2.07190000      -0.02440000
O        2.37780000      -2.59500000      -0.04180000
N        1.15040000      -0.66300000       0.02210000
H        0.78410000       1.84910000      -0.30480000
H       -0.88340000       1.81040000      -0.01250000
H       -2.12080000      -2.47260000      -0.00260000
H        2.03050000      -0.16760000       0.08750000
