20
Properties=species:S:1:pos:R:3 gdb_29901=T pbc="F F F"
C       -0.17930000       1.45750000       0.01930000
N       -0.07310000       0.01570000      -0.01070000
C        0.14650000      -0.74650000      -1.12890000
C        0.29380000      -2.05700000      -0.74000000
C        0.16310000      -2.10330000       0.68180000
C       -0.05730000      -0.80530000       1.09270000
C        0.23140000      -3.28780000       1.56470000
C       -0.31800000      -4.62980000       1.12300000
C        1.16760000      -4.44000000       1.25990000
H        0.78550000       1.93610000       0.22730000
H       -0.54420000       1.81610000      -0.94590000
H       -0.89200000       1.76320000       0.79010000
H        0.17860000      -0.28940000      -2.10570000
H        0.45870000      -2.89310000      -1.40320000
H       -0.20610000      -0.39970000       2.08160000
H        0.10450000      -3.05740000       2.61860000
H       -0.83170000      -5.24030000       1.85780000
H       -0.73660000      -4.68710000       0.12400000
H        1.76000000      -4.36840000       0.35410000
H        1.67650000      -4.92000000       2.08890000
