20
Properties=species:S:1:pos:R:3 gdb_56165=T pbc="F F F"
C        0.28560000       1.35610000      -0.15150000
C        0.36780000      -0.15080000      -0.34340000
O        1.25500000      -0.81970000       0.15680000
N       -0.62980000      -0.69910000      -1.10060000
C       -0.75460000      -2.14070000      -1.28830000
C       -0.09840000      -2.62600000      -2.56470000
O       -0.66010000      -2.07860000      -3.73180000
C        1.37150000      -2.95260000      -2.57040000
C        0.33280000      -4.05560000      -2.66940000
H        1.27150000       1.78740000      -0.33720000
H       -0.44920000       1.84320000      -0.79820000
H        0.02840000       1.56530000       0.89130000
H       -1.37090000      -0.10710000      -1.43480000
H       -0.29710000      -2.62510000      -0.42220000
H       -1.82080000      -2.39090000      -1.31160000
H       -0.32880000      -1.17680000      -3.80650000
H        1.92030000      -2.71620000      -3.47540000
H        1.92130000      -2.82550000      -1.64540000
H        0.18320000      -4.70900000      -1.81640000
H        0.19770000      -4.52710000      -3.63570000
