19
Properties=species:S:1:pos:R:3 gdb_87502=T pbc="F F F"
C       -0.20130000       1.44970000      -0.02770000
N        0.03700000       0.01430000       0.01640000
C        1.41520000      -0.45960000      -0.23020000
C        0.80010000      -0.50860000       1.10210000
C        1.18650000       0.07240000       2.47590000
N       -0.16590000      -0.43450000       2.95500000
C        0.41320000      -1.58250000       2.13150000
C        1.78240000      -1.34060000       2.81540000
O        2.91710000      -1.84330000       2.16880000
H        0.65920000       2.04830000       0.31560000
H       -0.43490000       1.74670000      -1.05490000
H       -1.05940000       1.68630000       0.60780000
H        1.50930000      -1.34950000      -0.84620000
H        2.18970000       0.29060000      -0.39200000
H        1.55870000       1.06290000       2.74130000
H       -0.09780000      -0.67560000       3.95150000
H       -0.12430000      -2.51830000       1.98110000
H        1.78040000      -1.55920000       3.89350000
H        3.69840000      -1.52820000       2.63390000
