20
Properties=species:S:1:pos:R:3 gdb_52160=T pbc="F F F"
O       -0.22620000      -0.00700000      -0.13970000
C        0.06700000       1.13010000       0.12630000
C        1.34560000       1.81880000      -0.28640000
C        1.07050000       3.10000000      -1.08840000
N        2.30810000       3.84790000      -1.25580000
C        3.25120000       3.59410000      -2.32540000
C        2.57520000       3.25360000      -3.66850000
C        1.78080000       4.59490000      -3.58130000
C        2.47980000       4.89330000      -2.23970000
H       -0.62530000       1.77290000       0.72130000
H        1.89280000       2.10140000       0.62330000
H        1.96070000       1.11620000      -0.85530000
H        0.57350000       2.83530000      -2.03300000
H        0.37600000       3.74270000      -0.53310000
H        4.27960000       3.37440000      -2.05910000
H        3.28750000       3.25160000      -4.49600000
H        2.00060000       2.32310000      -3.70710000
H        2.07680000       5.29800000      -4.36240000
H        0.68830000       4.53970000      -3.56310000
H        2.79570000       5.87190000      -1.89360000
