19
Properties=species:S:1:pos:R:3 gdb_31705=T pbc="F F F"
C        0.07270000       1.49760000       0.15030000
C       -0.05270000      -0.02470000      -0.02080000
C        0.69130000      -0.54240000      -1.21090000
C        1.75080000      -1.40180000      -1.25190000
N        2.06760000      -1.54570000      -2.60030000
C        1.18630000      -0.76940000      -3.28200000
O        1.26530000      -0.72350000      -4.61790000
C        0.29540000       0.11790000      -5.24330000
N        0.34340000      -0.14850000      -2.50130000
H        1.11520000       1.78760000       0.31700000
H       -0.27780000       2.01090000      -0.74910000
H       -0.51990000       1.84770000       1.00160000
H        0.31270000      -0.53510000       0.87770000
H       -1.11440000      -0.28520000      -0.11930000
H        2.29980000      -1.91740000      -0.48210000
H        2.79540000      -2.10750000      -3.00650000
H        0.49010000       0.04960000      -6.31420000
H       -0.71840000      -0.22420000      -5.01600000
H        0.40030000       1.15120000      -4.90020000
