18
Properties=species:S:1:pos:R:3 gdb_38044=T pbc="F F F"
C       -0.07620000       1.59550000       0.20520000
C        1.43660000       1.29870000       0.01230000
C        1.70190000       0.45710000       1.27880000
C        0.67070000      -0.39560000       1.29920000
C       -0.08520000       0.01510000       0.03430000
C       -1.14540000      -0.63810000      -0.78410000
C       -0.84310000      -0.46140000      -2.07390000
C        0.45630000       0.31470000      -2.24920000
N        1.08810000       0.14560000      -0.92510000
H       -0.40370000       2.01720000       1.15800000
H       -0.54660000       2.11850000      -0.63180000
H        2.17320000       2.03900000      -0.29900000
H        2.53870000       0.55820000       1.95430000
H        0.42500000      -1.18940000       1.98870000
H       -2.03140000      -1.12100000      -0.39210000
H       -1.44150000      -0.79150000      -2.91540000
H        1.09800000      -0.10300000      -3.03440000
H        0.23850000       1.35780000      -2.53950000
