15
Properties=species:S:1:pos:R:3 gdb_125518=T pbc="F F F"
C        0.05900000       1.46380000      -0.14950000
C        0.00290000      -0.02030000      -0.04350000
N        0.12310000      -0.84900000      -1.07700000
N        0.00020000      -2.03620000      -0.48770000
C        0.09950000      -3.28510000      -1.20630000
C        1.49690000      -3.50980000      -1.78800000
O        1.71250000      -4.32780000      -2.63710000
N       -0.17600000      -1.96530000       0.82750000
N       -0.18070000      -0.69360000       1.12360000
H        0.85050000       1.86520000       0.48960000
H        0.24970000       1.75980000      -1.18190000
H       -0.88470000       1.90950000       0.17880000
H       -0.12170000      -4.08170000      -0.49030000
H       -0.63680000      -3.31950000      -2.01270000
H        2.29240000      -2.87020000      -1.34990000
