17
Properties=species:S:1:pos:R:3 gdb_68724=T pbc="F F F"
C        0.01760000       1.52590000       0.02320000
C       -0.09080000       0.03800000       0.10050000
O        1.06390000      -0.74140000      -0.23150000
C        0.48340000      -0.93920000       1.07840000
C        1.30020000      -0.73020000       2.22470000
C        1.96610000      -0.57370000       3.21420000
C       -0.73210000      -1.83570000       0.93810000
C       -1.97520000      -1.05490000       1.27670000
C       -1.32250000      -0.83620000      -0.06470000
H        0.94780000       1.86400000       0.48620000
H        0.01370000       1.85730000      -1.02120000
H       -0.82710000       2.00060000       0.53150000
H        2.56150000      -0.43500000       4.08240000
H       -0.71000000      -2.91510000       0.86300000
H       -2.90220000      -1.62010000       1.26300000
H       -1.94020000      -0.28000000       2.03730000
H       -1.81240000      -1.06560000      -1.00260000
