14
Properties=species:S:1:pos:R:3 gdb_10383=T pbc="F F F"
O       -0.17630000       0.06630000      -0.28580000
C       -0.01080000       1.18560000       0.11600000
C        1.31410000       1.94430000       0.02680000
C        2.45460000       1.13960000      -0.65080000
O        2.33210000       1.89590000      -1.87170000
C        1.38620000       2.79710000      -1.29200000
C        1.58190000       2.63300000       1.27010000
C        1.77050000       3.19420000       2.31670000
H       -0.83320000       1.77500000       0.57430000
H        3.43360000       1.26760000      -0.17780000
H        2.22500000       0.08060000      -0.79430000
H        0.45630000       2.86340000      -1.86990000
H        1.79420000       3.80160000      -1.13030000
H        1.95450000       3.69270000       3.23660000
