15
Properties=species:S:1:pos:R:3 gdb_18360=T pbc="F F F"
O        0.15780000       1.44500000       0.00570000
C        0.08810000       0.03460000      -0.04620000
C        0.51240000      -0.61860000       1.32360000
N       -0.70840000      -0.55160000       2.19400000
C       -1.63700000      -0.55770000       1.33640000
O       -2.93480000      -0.13370000       1.29950000
C       -2.71270000       0.24250000      -0.12740000
C       -1.35960000      -0.51780000      -0.12450000
H       -0.15620000       1.72700000       0.87330000
H        0.71840000      -0.27170000      -0.88450000
H        0.85720000      -1.65220000       1.19210000
H        1.32290000      -0.05010000       1.78810000
H       -3.50520000      -0.16090000      -0.75800000
H       -2.63870000       1.32800000      -0.21310000
H       -1.40950000      -1.47810000      -0.64220000
