19
Properties=species:S:1:pos:R:3 gdb_83747=T pbc="F F F"
O       -0.07470000       1.41440000       0.09790000
C       -0.06390000       0.02290000       0.04390000
C       -0.44050000      -0.77580000       1.26440000
C       -1.13640000      -0.00550000       2.39260000
C       -2.61200000       0.14160000       1.94450000
C       -2.58210000       0.02200000       0.42540000
C       -3.75990000       0.13680000      -0.43800000
O       -2.84600000       1.23210000      -0.33580000
C       -1.35430000      -0.76430000       0.04270000
H       -0.84890000       1.72020000      -0.39150000
H        0.73880000      -0.38370000      -0.57040000
H        0.14980000      -1.65180000       1.50760000
H       -1.05450000      -0.53820000       3.34250000
H       -0.67040000       0.97610000       2.51530000
H       -3.20340000      -0.68920000       2.34780000
H       -3.08420000       1.07520000       2.26130000
H       -3.77770000      -0.37290000      -1.40100000
H       -4.73950000       0.31400000       0.00510000
H       -1.45800000      -1.61130000      -0.62610000
