19
Properties=species:S:1:pos:R:3 gdb_72531=T pbc="F F F"
C        0.00120000       1.52520000       0.01420000
C       -0.02800000       0.00180000       0.00100000
C        0.69300000      -0.58400000      -1.24010000
O        0.69110000      -2.01180000      -1.18530000
C        0.02110000      -2.47630000      -0.02130000
O        0.71340000      -2.03230000       1.13760000
C        0.71660000      -0.60570000       1.21760000
C       -1.39050000      -1.93780000      -0.00300000
C       -1.41420000      -0.60570000       0.00890000
H        1.02860000       1.90420000       0.00760000
H       -0.51330000       1.93380000      -0.86190000
H       -0.49620000       1.91820000       0.90710000
H        0.20090000      -0.25700000      -2.16550000
H        1.73630000      -0.23950000      -1.25900000
H        0.09620000      -3.56300000      -0.03160000
H        1.76000000      -0.26130000       1.22260000
H        0.24230000      -0.29520000       2.15790000
H       -2.25290000      -2.59300000      -0.00060000
H       -2.30810000       0.00910000       0.02290000
