19
Properties=species:S:1:pos:R:3 gdb_77682=T pbc="F F F"
C       -0.15980000       1.59190000      -0.06350000
C        0.02370000       0.09350000       0.06230000
C        1.33410000      -0.63730000      -0.17530000
O        1.34700000      -1.87090000      -0.83380000
C        2.63750000       0.13440000      -0.06670000
O        2.55750000       0.85460000       1.16170000
C        1.69950000       0.15840000       2.07000000
C        0.72900000      -0.62200000       1.20440000
O        0.17750000      -1.77800000       1.74250000
H        0.70660000       2.13660000       0.31610000
H       -0.31340000       1.88200000      -1.10910000
H       -1.04050000       1.91710000       0.50040000
H       -0.82660000      -0.49650000      -0.27610000
H        0.97350000      -1.76130000      -1.71390000
H        3.46860000      -0.58810000      -0.06940000
H        2.81260000       0.87100000      -0.85860000
H        2.25560000      -0.55510000       2.69640000
H        1.24180000       0.91200000       2.71840000
H        0.37780000      -2.49120000       1.11990000
