18
Properties=species:S:1:pos:R:3 gdb_70084=T pbc="F F F"
O       -0.04580000       1.36240000       0.05400000
C       -0.00590000      -0.04030000       0.05230000
C       -0.27250000      -0.70160000       1.35960000
C        1.14490000      -0.72470000       0.77580000
C        1.72980000      -1.94310000       0.17760000
C        1.30430000      -2.48420000      -0.96980000
C        0.19070000      -1.90170000      -1.75330000
N       -1.17330000      -1.97190000      -1.15460000
C       -0.48400000      -0.67640000      -1.23140000
H        0.67080000       1.67980000      -0.50660000
H       -0.43110000      -0.04610000       2.20790000
H       -0.84010000      -1.62340000       1.34060000
H        1.84100000      -0.06250000       1.28290000
H        2.55890000      -2.40240000       0.71040000
H        1.78070000      -3.37790000      -1.36200000
H        0.25090000      -2.02760000      -2.83180000
H       -1.86650000      -2.03270000      -1.89640000
H       -0.84660000       0.05400000      -1.94980000
