18
Properties=species:S:1:pos:R:3 gdb_71173=T pbc="F F F"
C       -0.05750000       1.53100000       0.02750000
C       -0.03930000       0.03240000      -0.00200000
C        0.38920000      -0.77380000      -1.24710000
C       -0.60200000      -1.80070000      -0.73630000
C       -0.55370000      -1.81500000       0.75440000
C        0.47250000      -0.79120000       1.22410000
C        1.87780000      -1.12850000       1.35130000
C        3.04600000      -1.40170000       1.43930000
N       -1.38200000      -0.78120000       0.05030000
H        0.96600000       1.92270000       0.01520000
H       -0.58880000       1.93130000      -0.84160000
H       -0.55530000       1.89940000       0.93010000
H        0.02370000      -0.29730000      -2.16080000
H        1.44380000      -1.04220000      -1.35420000
H       -1.10920000      -2.57890000      -1.29500000
H       -1.01180000      -2.59770000       1.34780000
H        0.10510000      -0.31440000       2.13980000
H        4.07550000      -1.64800000       1.52390000
