18
Properties=species:S:1:pos:R:3 gdb_100387=T pbc="F F F"
C        0.08830000       1.51810000      -0.12140000
C        0.02570000      -0.01270000      -0.02800000
C        0.62840000      -0.50380000       1.31020000
O        1.95120000      -0.06300000       1.49600000
O       -1.30530000      -0.55360000      -0.02820000
C       -2.22740000      -0.12150000      -0.91740000
N       -3.35890000      -0.67870000      -0.94910000
C        0.78070000      -0.63300000      -1.20670000
O        1.94530000      -0.94600000      -1.18310000
H        1.08290000       1.83200000       0.20200000
H       -0.08590000       1.90250000      -1.13010000
H       -0.65560000       1.95190000       0.55390000
H        0.02430000      -0.09380000       2.12500000
H        0.53890000      -1.59850000       1.34600000
H        2.47040000      -0.45430000       0.78030000
H       -1.89840000       0.71220000      -1.54610000
H       -3.94480000      -0.23560000      -1.65380000
H        0.16540000      -0.78580000      -2.12090000
