21
Properties=species:S:1:pos:R:3 gdb_52320=T pbc="F F F"
O        0.04680000      -0.19230000      -0.21890000
C        0.06290000       1.00800000      -0.13270000
C        1.31030000       1.86050000      -0.08870000
C        1.32920000       2.89730000      -1.22860000
C        2.54640000       3.82320000      -1.19280000
C        2.60400000       4.84820000      -2.33870000
C        3.55690000       5.90240000      -1.77240000
O        3.35040000       5.90890000      -0.35980000
C        2.62320000       4.74980000       0.03450000
H       -0.88840000       1.59050000      -0.08720000
H        1.31790000       2.38120000       0.87950000
H        2.18390000       1.20320000      -0.12960000
H        1.30580000       2.36880000      -2.18950000
H        0.41440000       3.50470000      -1.18690000
H        3.45820000       3.21190000      -1.22690000
H        2.95100000       4.42180000      -3.28340000
H        1.60950000       5.27930000      -2.50580000
H        4.60430000       5.64590000      -1.99350000
H        3.36870000       6.90980000      -2.15900000
H        1.61150000       5.04220000       0.36130000
H        3.13000000       4.28780000       0.88960000
