23
Properties=species:S:1:pos:R:3 gdb_81022=T pbc="F F F"
C       -0.01030000       1.54720000       0.05490000
C        0.00240000       0.03070000      -0.03160000
C        0.23770000      -0.65950000      -1.41300000
C       -0.69320000      -1.80550000      -0.91820000
C        0.07630000      -2.80040000      -0.03430000
C        1.23060000      -2.09220000       0.71300000
C        0.90780000      -0.61490000       1.03900000
C       -1.36870000      -0.71960000      -0.03350000
O       -2.03470000      -1.04190000       1.16050000
H        0.98830000       1.96750000      -0.11370000
H       -0.68640000       1.97980000      -0.69070000
H       -0.34710000       1.88090000       1.04350000
H       -0.22250000      -0.08770000      -2.22380000
H        1.26180000      -0.91130000      -1.69860000
H       -1.32070000      -2.31770000      -1.65160000
H       -0.62620000      -3.26960000       0.66830000
H        0.47760000      -3.61900000      -0.64110000
H        1.50430000      -2.64000000       1.62070000
H        2.11870000      -2.11590000       0.07400000
H        1.84160000      -0.04810000       1.12980000
H        0.41090000      -0.52260000       2.01490000
H       -2.09630000      -0.15230000      -0.62260000
H       -1.45130000      -1.57300000       1.71100000
