19
Properties=species:S:1:pos:R:3 gdb_6376=T pbc="F F F"
C       -0.56050000       1.33000000       0.59060000
N       -0.93240000      -0.06660000       0.49800000
C       -0.91520000      -0.74800000      -0.67910000
O       -0.57800000      -0.25690000      -1.74400000
C       -1.32730000      -2.22330000      -0.58790000
C       -2.45980000      -2.57770000       0.38800000
C       -2.94000000      -4.01640000       0.21250000
O       -2.08380000      -2.33580000       1.75470000
H        0.30410000       1.47120000       1.24980000
H       -0.30070000       1.66920000      -0.41280000
H       -1.38830000       1.93880000       0.97210000
H       -1.24000000      -0.56930000       1.31990000
H       -1.60500000      -2.51590000      -1.60360000
H       -0.43620000      -2.81330000      -0.32780000
H       -3.30100000      -1.89480000       0.22330000
H       -2.11300000      -4.72350000       0.35440000
H       -3.71970000      -4.24710000       0.94330000
H       -3.34380000      -4.17630000      -0.79160000
H       -1.40550000      -2.98070000       1.98810000
