16
Properties=species:S:1:pos:R:3 gdb_13494=T pbc="F F F"
C        0.33300000       0.46760000      -0.84430000
C        0.09180000      -0.13410000       0.54040000
O       -0.04080000       0.87240000       1.53290000
C       -1.14280000      -1.04050000       0.60740000
O       -2.36410000      -0.31170000       0.29810000
C       -2.72690000      -1.18000000      -0.79780000
C       -1.45380000      -1.99960000      -0.55090000
O       -0.93310000      -2.95350000      -1.04090000
H        1.18270000       1.15280000      -0.80070000
H        0.55070000      -0.30940000      -1.58450000
H       -0.54560000       1.03040000      -1.17660000
H        0.95880000      -0.73470000       0.83870000
H       -0.86620000       1.33660000       1.34530000
H       -1.20070000      -1.50480000       1.60050000
H       -3.66830000      -1.71560000      -0.62380000
H       -2.77380000      -0.65860000      -1.76170000
