18
Properties=species:S:1:pos:R:3 gdb_10254=T pbc="F F F"
C        0.00370000       1.55630000       0.01820000
C        0.03090000       0.02440000       0.03130000
C        0.77300000      -0.50370000       1.26330000
C       -1.42340000      -0.55730000      -0.03260000
C       -2.16520000      -0.06530000      -1.19940000
C       -2.76540000       0.34020000      -2.15780000
C       -1.43350000      -2.02470000      -0.01440000
C       -1.43360000      -3.22590000      -0.00100000
H        1.02330000       1.95360000       0.02860000
H       -0.50590000       1.94310000      -0.86730000
H       -0.51230000       1.94570000       0.90430000
H        0.54660000      -0.32780000      -0.87010000
H        0.28010000      -0.17590000       2.18680000
H        0.81520000      -1.59520000       1.27150000
H        1.79770000      -0.12010000       1.28190000
H       -1.94490000      -0.20530000       0.87140000
H       -3.30320000       0.69220000      -3.00310000
H       -1.44340000      -4.28770000       0.00880000
