15
Properties=species:S:1:pos:R:3 gdb_32386=T pbc="F F F"
C        0.02100000       1.39870000       0.16320000
N       -0.02280000      -0.01080000      -0.17280000
C       -1.22260000      -0.67640000      -0.06320000
C       -2.50200000      -0.19770000       0.00600000
O       -3.34600000      -1.28020000       0.04580000
C       -2.52670000      -2.35540000       0.01240000
N       -1.25740000      -2.05640000      -0.05120000
C       -3.11260000      -3.63780000       0.05090000
C       -3.61640000      -4.72960000       0.08390000
H        1.04590000       1.76070000       0.06050000
H       -0.60250000       1.96630000      -0.53680000
H       -0.33090000       1.61660000       1.18420000
H        0.75430000      -0.56480000       0.15550000
H       -2.96080000       0.77350000       0.02470000
H       -4.05630000      -5.69610000       0.11150000
