15
Properties=species:S:1:pos:R:3 gdb_26440=T pbc="F F F"
O       -1.03330000       0.24320000      -0.07180000
C        0.18710000      -0.42310000      -0.20230000
C        1.17670000       0.44370000      -0.98220000
O        0.85720000       1.52560000      -1.40810000
C        0.77350000      -0.74560000       1.14130000
C        0.53050000      -0.27450000       2.39210000
C        1.43880000      -0.96780000       3.25900000
C        2.16470000      -1.79590000       2.46590000
O        1.77120000      -1.67420000       1.16590000
H       -0.91750000       1.08410000      -0.54430000
H        0.07520000      -1.36410000      -0.77170000
H        2.19290000       0.02650000      -1.11600000
H       -0.21420000       0.45750000       2.65750000
H        1.53030000      -0.86210000       4.32850000
H        2.95320000      -2.50640000       2.64950000
