18
Properties=species:S:1:pos:R:3 gdb_126224=T pbc="F F F"
C        0.22730000       1.55460000      -0.24580000
C       -0.01930000       0.05600000       0.00650000
C        0.60630000      -0.45350000       1.26340000
C        0.03080000      -0.73930000       2.49200000
N       -1.34930000      -0.63080000       2.81460000
C        1.11840000      -1.17560000       3.28900000
O        1.01570000      -1.57960000       4.57560000
N        2.26920000      -1.16940000       2.63940000
N        1.93080000      -0.71120000       1.40170000
H        1.29600000       1.77540000      -0.33490000
H       -0.26140000       1.87720000      -1.17030000
H       -0.16780000       2.15710000       0.57740000
H       -1.09420000      -0.13230000       0.08740000
H        0.34420000      -0.52420000      -0.85140000
H       -1.53820000       0.21000000       3.35330000
H       -1.63480000      -1.40970000       3.39990000
H        1.89770000      -1.85310000       4.85660000
H        2.65070000      -0.62340000       0.70690000
