16
Properties=species:S:1:pos:R:3 gdb_52014=T pbc="F F F"
O       -0.17740000       0.07960000       0.31640000
C        0.00230000       1.18550000      -0.12120000
C        1.34920000       1.88640000      -0.14850000
N        1.45380000       2.73950000      -1.32380000
C        2.59880000       3.67020000      -1.28710000
C        2.78190000       4.27350000      -2.61140000
C        2.94560000       4.73000000      -3.70930000
C        2.39760000       4.69630000      -0.25350000
C        2.25490000       5.51670000       0.61130000
H       -0.82500000       1.80160000      -0.53810000
H        1.37780000       2.53590000       0.73870000
H        2.14870000       1.13740000      -0.03140000
H        1.53810000       2.17970000      -2.16610000
H        3.53950000       3.14230000      -1.03570000
H        3.08680000       5.14810000      -4.67550000
H        2.12410000       6.25330000       1.36570000
