21
Properties=species:S:1:pos:R:3 gdb_38845=T pbc="F F F"
C       -0.03090000       1.53560000      -0.04720000
C        1.45720000       2.00240000      -0.02790000
C        2.26660000       0.69840000       0.16560000
C        1.39920000      -0.34600000      -0.55820000
C        0.00560000      -0.01820000       0.01470000
C       -0.09860000      -0.54170000       1.46200000
C        1.13460000      -0.21640000       2.29260000
O        2.31270000      -0.99850000       2.03300000
C        2.32060000       0.37780000       1.65170000
H       -0.60570000       1.95720000       0.78290000
H       -0.52200000       1.86640000      -0.96690000
H        1.72920000       2.47730000      -0.97540000
H        1.65710000       2.73390000       0.76180000
H        3.28170000       0.76890000      -0.23740000
H        1.42850000      -0.17140000      -1.63930000
H        1.71940000      -1.37070000      -0.36090000
H       -0.80330000      -0.45490000      -0.57790000
H       -0.97880000      -0.10680000       1.95070000
H       -0.24310000      -1.62920000       1.46620000
H        0.96730000      -0.03530000       3.35440000
H        2.98270000       1.00640000       2.24940000
