17
Properties=species:S:1:pos:R:3 gdb_36060=T pbc="F F F"
N       -0.25400000      -0.95660000      -0.59460000
C       -0.10820000       0.15080000      -0.30000000
C        0.08940000       1.55730000       0.04570000
C        1.58130000       1.94980000       0.17300000
C        2.35620000       1.86940000      -1.18750000
C        2.13760000       3.39390000      -1.37710000
C        1.77040000       3.50670000       0.12600000
C        2.19700000       1.27410000       1.30840000
N        2.70350000       0.76500000       2.21440000
H       -0.37350000       2.17160000      -0.73420000
H       -0.43480000       1.77550000       0.98200000
H        3.40480000       1.61330000      -1.02880000
H        1.93710000       1.18750000      -1.92990000
H        2.99880000       3.97290000      -1.71230000
H        1.29590000       3.62090000      -2.03590000
H        0.89620000       4.10080000       0.40240000
H        2.61580000       3.81850000       0.74120000
