20
Properties=species:S:1:pos:R:3 gdb_84431=T pbc="F F F"
C       -0.01350000       1.55170000      -0.06060000
C       -0.05790000       0.05390000       0.10320000
N        1.20810000      -0.68900000      -0.15180000
C        0.60230000      -0.75490000       1.18620000
C        1.42190000      -0.20240000       2.32560000
C       -0.30440000      -1.97490000       1.46140000
O       -0.80440000      -2.02270000       2.79350000
C       -1.40730000      -1.84290000       0.43190000
C       -1.29560000      -0.70710000      -0.26260000
H        0.94810000       1.94970000       0.26960000
H       -0.14270000       1.82930000      -1.11300000
H       -0.80930000       2.03740000       0.51460000
H        1.00740000      -1.53340000      -0.68570000
H        1.96200000       0.69320000       2.01170000
H        0.79290000       0.04010000       3.18570000
H        2.16130000      -0.94010000       2.65630000
H        0.26250000      -2.90810000       1.34700000
H       -1.46220000      -1.32260000       2.87450000
H       -2.17360000      -2.59970000       0.31070000
H       -1.97470000      -0.36930000      -1.03860000
