20
Properties=species:S:1:pos:R:3 gdb_40261=T pbc="F F F"
C        0.00380000       1.59200000       0.16410000
C        1.31170000       0.84210000      -0.00420000
C        0.01530000       0.09300000      -0.00290000
C       -0.36170000      -0.79910000       1.15500000
C       -1.87250000      -0.86280000       1.38810000
C       -2.62720000      -1.62960000       0.29770000
N       -2.60040000      -1.12870000      -1.06460000
C       -1.61140000      -0.64330000      -1.67090000
O       -0.32430000      -0.36230000      -1.30170000
H       -0.24010000       2.00140000       1.13870000
H       -0.34220000       2.18130000      -0.67670000
H        1.81720000       0.93470000      -0.95810000
H        1.96690000       0.73560000       0.85320000
H        0.03930000      -1.80690000       0.98240000
H        0.13510000      -0.41140000       2.05120000
H       -2.07690000      -1.35790000       2.34520000
H       -2.27370000       0.15530000       1.46610000
H       -2.24960000      -2.66370000       0.26910000
H       -3.68110000      -1.70630000       0.58760000
H       -1.70620000      -0.42480000      -2.73570000
