17
Properties=species:S:1:pos:R:3 gdb_50338=T pbc="F F F"
O       -0.54680000       0.35110000       0.44310000
C       -0.02250000       1.42280000       0.58190000
C        1.30180000       1.83290000      -0.01400000
O        1.95610000       0.82390000      -0.78260000
C        2.13060000       1.70910000      -1.91500000
C        1.38600000       1.23260000      -3.17160000
C        0.06440000       1.96040000      -3.08470000
C        0.00130000       2.81230000      -2.06030000
C        1.26240000       2.80820000      -1.24080000
H       -0.49290000       2.23630000       1.18650000
H        1.93800000       2.21320000       0.80320000
H        3.19010000       1.92870000      -2.07950000
H        1.92600000       1.47600000      -4.09580000
H        1.27170000       0.14280000      -3.14180000
H       -0.73480000       1.79460000      -3.79880000
H       -0.85240000       3.43600000      -1.82050000
H        1.69430000       3.79440000      -1.06020000
