21
Properties=species:S:1:pos:R:3 gdb_114280=T pbc="F F F"
C       -0.03780000       1.36100000      -0.32320000
O       -0.09780000       0.10570000       0.31480000
C       -1.33270000      -0.54170000       0.17200000
C       -1.52320000      -1.28140000      -1.21980000
C       -1.02800000      -2.51370000      -0.49820000
C       -0.11120000      -3.47380000      -0.49630000
C        0.27670000      -3.79270000       0.94690000
C       -0.16600000      -2.51240000       1.73390000
C       -1.30740000      -1.95050000       0.86890000
H        0.95150000       1.77920000      -0.12250000
H       -0.17320000       1.28100000      -1.41190000
H       -0.80280000       2.04980000       0.06820000
H       -2.15560000       0.12990000       0.45920000
H       -2.58020000      -1.31940000      -1.50470000
H       -0.93710000      -0.91780000      -2.06760000
H        0.37940000      -3.91960000      -1.35400000
H       -0.23070000      -4.69250000       1.32370000
H        1.35120000      -3.98310000       1.04550000
H       -0.45570000      -2.72770000       2.76630000
H        0.65890000      -1.79470000       1.75560000
H       -2.30560000      -2.18330000       1.25960000
