15
Properties=species:S:1:pos:R:3 gdb_129565=T pbc="F F F"
N       -0.18420000       1.40960000       0.11520000
C        0.00430000      -0.03740000      -0.00300000
C        0.75980000      -0.43240000      -1.21960000
N        1.32580000      -0.69920000      -2.19210000
C        0.68410000      -0.58000000       1.23070000
N        1.74950000       0.04800000       1.72150000
N        2.10180000      -0.68120000       2.79220000
C        1.29930000      -1.75280000       2.99490000
C        0.35550000      -1.72270000       1.99010000
H        0.70740000       1.83260000       0.35750000
H       -0.47160000       1.79650000      -0.77890000
H       -0.98170000      -0.51020000      -0.08270000
H        2.89440000      -0.39060000       3.33960000
H        1.45620000      -2.43280000       3.81670000
H       -0.45140000      -2.41890000       1.83020000
