15
Properties=species:S:1:pos:R:3 gdb_85106=T pbc="F F F"
C        0.25820000       1.51510000      -0.13000000
C       -0.04170000       0.05630000       0.10420000
O        0.68730000      -0.82900000      -0.82540000
C        1.34580000      -1.45950000       0.19260000
N        2.23780000      -2.33450000       0.22650000
C        0.67120000      -0.65060000       1.30340000
O        1.52920000       0.18590000       2.02900000
C       -0.22130000      -1.42070000       2.18030000
N       -0.92740000      -2.01780000       2.87280000
H        1.32620000       1.71570000      -0.03440000
H       -0.07620000       1.80080000      -1.13120000
H       -0.27740000       2.12640000       0.60220000
H       -1.10880000      -0.16840000       0.04660000
H        2.52640000      -2.63820000      -0.70440000
H        2.25930000      -0.35670000       2.35370000
