17
Properties=species:S:1:pos:R:3 gdb_63505=T pbc="F F F"
C        0.08360000       1.50900000       0.01780000
C        0.12200000       0.00210000      -0.03840000
O       -0.98450000      -0.59430000      -0.62250000
C        1.36960000      -0.75610000      -0.23000000
C        0.74880000      -0.82990000       1.17660000
C        1.46190000      -0.09580000       2.25980000
O        2.28030000       0.77680000       2.07860000
C        0.03480000      -1.99940000       1.59000000
C       -0.56630000      -2.95900000       1.99710000
H        0.97760000       1.91500000       0.48980000
H        0.00980000       1.89840000      -1.00270000
H       -0.79420000       1.85560000       0.57600000
H       -1.76960000      -0.35610000      -0.11550000
H        1.31630000      -1.66150000      -0.82190000
H        2.30100000      -0.20130000      -0.26200000
H        1.17810000      -0.41770000       3.28280000
H       -1.08630000      -3.81970000       2.33800000
