21
Properties=species:S:1:pos:R:3 gdb_83544=T pbc="F F F"
C        0.08290000       1.42400000      -0.38230000
N        0.03430000       0.00120000      -0.06630000
C       -1.15340000      -0.44030000       0.75920000
C       -0.91130000      -1.96380000       0.76550000
C        0.62380000      -1.94390000       1.09330000
C        0.81330000      -0.41670000       1.16290000
C       -0.39150000       0.00430000       2.01870000
C       -0.61870000       1.13640000       2.92860000
N       -0.61920000      -0.26250000       3.42910000
H        1.06840000       1.65790000      -0.79900000
H       -0.66070000       1.63930000      -1.15730000
H       -0.09930000       2.10600000       0.46260000
H       -2.13960000      -0.06240000       0.48390000
H       -1.50330000      -2.48060000       1.52590000
H       -1.12710000      -2.40340000      -0.20990000
H        0.86050000      -2.42660000       2.04410000
H        1.22670000      -2.38950000       0.30030000
H        1.81710000      -0.01280000       1.29590000
H        0.21310000       1.74180000       3.27990000
H       -1.56580000       1.66800000       2.86780000
H       -1.57440000      -0.57780000       3.58580000
