19
Properties=species:S:1:pos:R:3 gdb_106635=T pbc="F F F"
C        0.07510000       1.53350000      -0.04120000
C       -0.01200000       0.03840000       0.07820000
C        1.15820000      -0.89310000      -0.22540000
C        0.53370000      -0.98770000       1.12830000
C        1.26230000      -0.70900000       2.40960000
O        1.94340000      -1.85320000       2.90670000
C       -0.73550000      -1.84850000       1.00730000
C       -1.27900000      -0.76630000       0.03920000
O       -2.37350000      -0.53140000      -0.39200000
H        1.04800000       1.90520000       0.29480000
H       -0.05780000       1.84490000      -1.08280000
H       -0.70380000       2.02260000       0.55160000
H        1.05420000      -1.70350000      -0.94240000
H        2.10970000      -0.37030000      -0.28500000
H        1.95080000       0.13990000       2.26950000
H        0.55470000      -0.42840000       3.19730000
H        2.55600000      -2.14520000       2.22330000
H       -0.60960000      -2.86540000       0.62520000
H       -1.34410000      -1.88130000       1.91620000
