20
Properties=species:S:1:pos:R:3 gdb_97384=T pbc="F F F"
C        0.05340000       1.40710000       0.05440000
N       -0.26110000       0.01400000      -0.18170000
C        0.51620000      -0.63710000      -0.92460000
O        0.30340000      -1.94970000      -1.16050000
C        1.14560000      -2.58000000      -2.12260000
C        0.78890000      -2.15500000      -3.53880000
C        2.66220000      -2.63630000      -1.79580000
O        2.64920000      -4.07410000      -1.86610000
C        1.20630000      -4.10170000      -1.89320000
H        0.95850000       1.75900000      -0.46830000
H       -0.78990000       2.03250000      -0.25970000
H        0.19080000       1.57640000       1.12850000
H        1.41060000      -0.21890000      -1.41250000
H        0.96740000      -1.08570000      -3.69160000
H        1.39460000      -2.70810000      -4.26240000
H       -0.26780000      -2.35810000      -3.73670000
H        3.34910000      -2.19190000      -2.52480000
H        2.90510000      -2.27310000      -0.78850000
H        0.77430000      -4.39970000      -0.93050000
H        0.81880000      -4.74120000      -2.69320000
