15
Properties=species:S:1:pos:R:3 gdb_19538=T pbc="F F F"
C       -0.07330000      -1.19410000      -0.09520000
C       -0.04260000       0.00700000      -0.01790000
C        0.03790000       1.41170000       0.08480000
C       -0.70140000       2.44880000       0.86470000
C        0.59140000       3.14650000       1.27950000
C        1.22370000       2.47210000       0.03380000
C        0.42900000       3.10270000      -1.11720000
N       -0.81940000       2.42380000      -0.63110000
H       -0.11180000      -2.25260000      -0.16700000
H       -1.62700000       2.33540000       1.41340000
H        0.61210000       4.24040000       1.32500000
H        0.97230000       2.72570000       2.21300000
H        2.28950000       2.26330000      -0.02060000
H        0.37180000       4.19630000      -1.16600000
H        0.67740000       2.69550000      -2.09970000
