22
Properties=species:S:1:pos:R:3 gdb_7134=T pbc="F F F"
C        0.01110000       1.62110000      -0.04870000
C       -0.00980000       0.09230000       0.01880000
C        0.67300000      -0.56110000      -1.18280000
C        0.66900000      -2.08530000      -1.14750000
O        0.15960000      -2.70270000      -0.23900000
C        1.34260000      -2.78830000      -2.32080000
C        1.30590000      -4.31430000      -2.23790000
C        1.99080000      -4.98770000      -3.42950000
H        1.03680000       2.00630000      -0.07800000
H       -0.50350000       1.98900000      -0.94380000
H       -0.48350000       2.06180000       0.82240000
H        0.47860000      -0.25260000       0.93640000
H       -1.04150000      -0.26970000       0.08180000
H        0.19880000      -0.24320000      -2.12300000
H        1.71710000      -0.22670000      -1.26970000
H        0.86580000      -2.43480000      -3.24680000
H        2.37860000      -2.42450000      -2.38380000
H        1.77790000      -4.63100000      -1.30170000
H        0.26330000      -4.64180000      -2.16620000
H        1.51140000      -4.71040000      -4.37540000
H        3.04600000      -4.69970000      -3.49950000
H        1.94980000      -6.07790000      -3.34440000
