20
Properties=species:S:1:pos:R:3 gdb_114370=T pbc="F F F"
C        1.30140000       0.24450000       1.22390000
C        0.28830000       0.47550000       0.09620000
C        0.66640000      -0.27600000      -1.17060000
C        0.55080000      -1.82190000      -1.31870000
C       -0.23060000      -1.53180000      -2.60310000
C       -1.46860000      -0.73900000      -2.37280000
C       -2.37480000      -0.92790000      -1.20590000
O       -3.55770000      -0.68940000      -1.26610000
N       -0.14460000      -0.03970000      -2.42650000
H        1.35800000      -0.81440000       1.49920000
H        2.30600000       0.56470000       0.92700000
H        1.02370000       0.80500000       2.12090000
H       -0.71100000       0.19550000       0.44320000
H        0.23860000       1.54320000      -0.15100000
H        1.68170000       0.02910000      -1.44710000
H        1.50930000      -2.31110000      -1.49780000
H        0.02590000      -2.37620000      -0.53640000
H       -0.05050000      -2.00370000      -3.56410000
H       -2.03710000      -0.48590000      -3.26370000
H       -1.93150000      -1.34840000      -0.28230000
