15
Properties=species:S:1:pos:R:3 gdb_19112=T pbc="F F F"
O        0.12720000       1.45160000      -0.10030000
C        0.02930000       0.05840000      -0.01880000
C        0.28490000      -0.68110000       1.32210000
C       -0.85680000      -0.26250000       2.27090000
C       -2.02430000      -0.23540000       1.33300000
C       -1.35550000      -0.64300000       0.00430000
C       -0.74250000      -1.77790000       0.88880000
N       -1.68510000      -1.49710000       2.07030000
H       -0.42520000       1.82160000       0.59820000
H        0.65920000      -0.35240000      -0.81470000
H        1.27740000      -0.86970000       1.72390000
H       -0.81570000       0.24490000       3.22700000
H       -2.95210000       0.29450000       1.51080000
H       -1.96660000      -0.79420000      -0.88210000
H       -0.52160000      -2.79710000       0.58440000
