16
Properties=species:S:1:pos:R:3 gdb_35560=T pbc="F F F"
N        0.22850000      -1.10890000      -0.18590000
C        0.09290000       0.03670000      -0.11380000
C       -0.06740000       1.47670000      -0.01210000
C       -0.22710000       2.13230000       1.42800000
C        0.69460000       3.30780000       0.92700000
O        1.84200000       3.74620000       1.61700000
C        2.99750000       3.33270000       0.85600000
C        2.49090000       2.27630000      -0.11560000
C        1.16790000       2.35400000      -0.11880000
H       -0.88220000       1.80110000      -0.66710000
H       -1.24710000       2.37380000       1.73160000
H        0.27570000       1.53110000       2.18570000
H        0.09040000       4.16290000       0.59310000
H        3.45250000       4.20700000       0.36580000
H        3.74200000       2.91340000       1.54430000
H        3.12690000       1.52580000      -0.56580000
