23
Properties=species:S:1:pos:R:3 gdb_76625=T pbc="F F F"
C        0.22640000       1.45290000      -1.80180000
C       -0.07760000       0.23050000      -0.95650000
C        0.97990000      -0.50690000      -0.15480000
C        2.41920000      -0.04190000      -0.06120000
C       -0.15630000       0.20040000       0.56130000
C        0.00990000       1.38030000       1.48460000
O        0.78710000       2.46390000       1.03170000
C       -1.12800000       1.72920000       2.41850000
C        0.15290000       1.12350000       2.95730000
H        1.08460000       2.01780000      -1.43610000
H        0.45030000       1.14950000      -2.83060000
H       -0.63540000       2.13070000      -1.85080000
H       -0.81060000      -0.41730000      -1.43300000
H        0.88830000      -1.59090000      -0.17820000
H        2.49780000       1.03770000       0.07010000
H        2.91130000      -0.50870000       0.79930000
H        2.98330000      -0.32860000      -0.95630000
H       -0.92480000      -0.46820000       0.94300000
H        0.26490000       2.94180000       0.37900000
H       -1.29450000       2.78300000       2.61270000
H       -2.02580000       1.12060000       2.39990000
H        0.13630000       0.09550000       3.30210000
H        0.82430000       1.77920000       3.49920000
