18
Properties=species:S:1:pos:R:3 gdb_37278=T pbc="F F F"
C        0.00640000       1.46120000      -0.02870000
C        1.29100000       0.71420000       0.04950000
C        1.86410000       0.33310000       1.40370000
C        1.46950000      -1.20840000       1.51380000
C        1.61820000      -1.52800000       2.98760000
C        1.10500000      -0.44830000       3.58500000
C        0.68640000       0.45160000       2.43570000
C        0.02830000      -0.56600000       1.41130000
N       -0.01240000      -0.01000000       0.04690000
H       -0.33890000       2.05150000       0.81280000
H       -0.30300000       1.84520000      -0.99710000
H        1.91300000       0.60730000      -0.83530000
H        2.86750000       0.66960000       1.66820000
H        1.79900000      -1.91980000       0.75650000
H        2.03250000      -2.42990000       3.41440000
H        0.97700000      -0.22800000       4.63530000
H        0.23340000       1.40980000       2.68550000
H       -0.86450000      -1.12890000       1.68760000
