19
Properties=species:S:1:pos:R:3 gdb_68396=T pbc="F F F"
O       -0.19380000       1.38170000       0.01330000
C        0.02110000      -0.00320000       0.01290000
C        0.94790000      -0.70800000      -1.02030000
N        1.23400000      -1.75120000       0.02720000
C        0.91270000      -0.70450000       1.06380000
C        0.16490000      -2.77340000       0.00960000
C       -1.24810000      -2.18940000      -0.07860000
N       -1.75780000      -1.47500000       1.11500000
C       -1.32680000      -0.70780000      -0.06420000
H        0.66210000       1.81830000       0.07970000
H        0.51350000      -1.07500000      -1.95540000
H        1.86240000      -0.14260000      -1.23350000
H        1.81710000      -0.12680000       1.29030000
H        0.44750000      -1.06420000       1.98100000
H        0.33940000      -3.41550000      -0.86130000
H        0.27250000      -3.39650000       0.90390000
H       -1.96920000      -2.74520000      -0.67330000
H       -2.77300000      -1.52670000       1.13930000
H       -2.07090000      -0.19060000      -0.66360000
