25
Properties=species:S:1:pos:R:3 gdb_108500=T pbc="F F F"
C       -0.24980000       1.56590000      -0.06630000
C       -0.06410000       0.04380000      -0.06480000
C        0.80650000      -0.48010000      -1.20520000
C        0.14360000      -0.42790000      -2.62140000
C        0.24440000      -1.97340000      -2.74000000
C        0.92170000      -2.04910000      -1.34190000
C        2.42040000      -2.37990000      -1.33990000
C        3.09840000      -1.08530000      -1.82910000
C        2.26220000       0.03000000      -1.17330000
H        0.70520000       2.08630000       0.05880000
H       -0.69330000       1.91000000      -1.00700000
H       -0.90990000       1.88350000       0.74690000
H        0.37730000      -0.26970000       0.89160000
H       -1.04920000      -0.43890000      -0.11750000
H       -0.87970000      -0.04140000      -2.61790000
H        0.70980000       0.13140000      -3.37210000
H       -0.71930000      -2.48500000      -2.80080000
H        0.86700000      -2.33420000      -3.56450000
H        0.36260000      -2.63160000      -0.60500000
H        2.75020000      -2.60420000      -0.31770000
H        2.66330000      -3.25220000      -1.95630000
H        4.15990000      -1.03150000      -1.57050000
H        3.03340000      -1.01420000      -2.92180000
H        2.38270000       0.99890000      -1.66880000
H        2.58000000       0.15900000      -0.12990000
