19
Properties=species:S:1:pos:R:3 gdb_70458=T pbc="F F F"
C        0.36310000       1.29680000      -0.70600000
C        0.14350000      -0.09650000      -0.19500000
C       -1.08890000      -0.54090000       0.57640000
C        0.26890000      -0.72410000       1.17590000
O        0.88200000      -1.91520000       0.66720000
C        0.90990000      -1.33770000      -0.66620000
C        0.32820000      -2.27350000      -1.72840000
C        0.40470000      -1.68960000      -3.06140000
C        0.48300000      -1.17690000      -4.14580000
H        1.43130000       1.52250000      -0.80050000
H       -0.09390000       1.43040000      -1.69270000
H       -0.07760000       2.03820000      -0.03180000
H       -1.67110000       0.28370000       0.97760000
H       -1.67210000      -1.41240000       0.29200000
H        0.60770000      -0.34900000       2.13480000
H        1.94330000      -1.07920000      -0.93160000
H        0.88420000      -3.21910000      -1.69560000
H       -0.71060000      -2.51510000      -1.47790000
H        0.54670000      -0.73990000      -5.11140000
