17
Properties=species:S:1:pos:R:3 gdb_69443=T pbc="F F F"
C        0.02610000       1.46360000      -0.13620000
C       -0.03500000      -0.02560000       0.04830000
C       -1.25770000      -0.82200000      -0.37390000
O       -1.12170000      -2.11000000       0.21470000
C       -0.27660000      -2.02600000       1.36660000
C        0.46320000      -3.27120000       1.53460000
C        1.08270000      -4.28360000       1.71610000
C        0.58990000      -0.79460000       1.12780000
O        1.17430000      -0.77340000      -0.17230000
H        0.96030000       1.86010000       0.26790000
H       -0.02100000       1.72340000      -1.19930000
H       -0.81280000       1.95440000       0.36780000
H       -2.16910000      -0.31210000      -0.02150000
H       -1.33010000      -0.95790000      -1.45810000
H       -0.87990000      -1.84200000       2.27330000
H        1.63190000      -5.18100000       1.86030000
H        1.16840000      -0.36510000       1.94100000
