20
Properties=species:S:1:pos:R:3 gdb_76123=T pbc="F F F"
C       -0.17110000       1.58010000       0.08110000
C        0.03890000       0.07360000       0.03820000
C        1.14090000      -0.54360000      -0.92240000
C        1.98680000       0.37850000      -1.66990000
N        2.65320000       1.12900000      -2.24500000
C        1.77140000      -1.24180000       0.29440000
C        2.15690000      -0.22630000       1.33350000
C        0.71410000      -0.64050000       1.22600000
C       -0.04560000      -1.27480000       2.35600000
H        0.75890000       2.11880000       0.28050000
H       -0.56680000       1.94850000      -0.87070000
H       -0.88880000       1.84100000       0.86610000
H       -0.91060000      -0.42040000      -0.19130000
H        0.69230000      -1.25080000      -1.62370000
H        2.18730000      -2.24160000       0.27060000
H        2.68290000      -0.63390000       2.19100000
H        2.50030000       0.76150000       1.03830000
H       -0.48090000      -0.51650000       3.01790000
H       -0.86540000      -1.90080000       1.98480000
H        0.60780000      -1.90600000       2.96680000
