21
Properties=species:S:1:pos:R:3 gdb_108530=T pbc="F F F"
C       -0.17040000       1.53130000      -0.00050000
C        0.14000000       0.02800000       0.04050000
C        0.78060000      -0.50240000      -1.22700000
C        2.16390000       0.02980000      -1.61410000
O        2.43230000      -0.69810000      -2.81970000
C        1.26930000      -1.48620000      -2.95000000
C        0.81640000      -2.04350000      -1.57100000
C       -0.64720000      -1.97050000      -2.06050000
C       -0.00490000      -0.66830000      -2.58860000
H        0.73730000       2.13190000      -0.11580000
H       -0.83710000       1.77370000      -0.83470000
H       -0.66190000       1.85180000       0.92300000
H        0.80880000      -0.18310000       0.88600000
H       -0.78500000      -0.52180000       0.24630000
H        2.17680000       1.10720000      -1.81920000
H        2.92960000      -0.19120000      -0.85820000
H        1.31650000      -2.11470000      -3.83850000
H        1.29820000      -2.82880000      -0.98560000
H       -0.94660000      -2.70680000      -2.81210000
H       -1.42140000      -1.86880000      -1.29820000
H       -0.46710000       0.12460000      -3.17900000
