15
Properties=species:S:1:pos:R:3 gdb_18544=T pbc="F F F"
N       -0.09490000       1.21530000      -0.61290000
C       -0.05550000       0.07030000      -0.10720000
O        0.97040000      -0.59880000       0.53350000
C        0.17150000      -1.82570000       0.64500000
C       -0.17140000      -2.19010000       2.09270000
C       -1.50130000      -1.50510000       2.31650000
C       -1.98050000      -0.92490000       1.21560000
C       -1.04670000      -1.07510000       0.04170000
H        0.79790000       1.70040000      -0.50730000
H        0.63570000      -2.62120000       0.06060000
H       -0.24020000      -3.27650000       2.23280000
H        0.61310000      -1.83270000       2.77060000
H       -1.99220000      -1.49820000       3.28330000
H       -2.90770000      -0.36980000       1.14520000
H       -1.50640000      -1.42730000      -0.88330000
