18
Properties=species:S:1:pos:R:3 gdb_51627=T pbc="F F F"
N       -0.08920000       1.27480000       0.10180000
C       -0.05760000       0.01600000       0.02020000
O       -1.19270000      -0.69860000       0.13270000
C       -1.09450000      -2.11560000       0.10360000
C       -1.37650000      -2.77710000       1.48890000
C       -2.63200000      -3.57040000       1.06740000
C       -2.22260000      -4.21640000      -0.27650000
C       -2.29460000      -2.71940000      -0.65430000
O       -3.37730000      -2.56780000       0.30890000
H        0.84810000       1.65250000      -0.01920000
H        0.83510000      -0.60390000      -0.14870000
H       -0.13460000      -2.41290000      -0.33390000
H       -0.55760000      -3.40450000       1.84970000
H       -1.61120000      -2.01620000       2.23490000
H       -3.21820000      -4.07890000       1.83180000
H       -1.27110000      -4.75070000      -0.35020000
H       -3.03760000      -4.78230000      -0.72720000
H       -2.51510000      -2.33970000      -1.65090000
