10
Properties=species:S:1:pos:R:3 gdb_131419=T pbc="F F F"
O       -0.11760000       1.34870000      -0.18510000
C        0.07700000       0.04200000      -0.05920000
N        1.22980000      -0.42640000       0.22880000
O        1.32670000      -1.83500000       0.33910000
C        0.26170000      -2.65120000       0.15170000
O        0.37300000      -3.83400000       0.25090000
C       -1.08050000      -1.99840000      -0.19010000
O       -2.08360000      -2.59820000      -0.37750000
O       -1.07610000      -0.61690000      -0.27640000
H        0.72870000       1.79070000      -0.02320000
