14
Properties=species:S:1:pos:R:3 gdb_53993=T pbc="F F F"
N        0.03760000       1.39040000       0.29290000
C        0.13800000       0.08440000      -0.04880000
O        1.15220000      -0.48160000      -0.38640000
C       -1.22230000      -0.66690000      -0.00080000
O       -2.24050000       0.06320000       0.69430000
C       -1.79330000      -0.79510000      -1.44490000
O       -1.23650000      -0.43540000      -2.43870000
C       -1.06360000      -2.00860000       0.54140000
C       -1.01090000      -3.11610000       1.00520000
H        0.84950000       1.97780000       0.20290000
H       -0.85590000       1.78220000       0.53580000
H       -2.29300000      -0.28410000       1.59170000
H       -2.81130000      -1.23680000      -1.43620000
H       -0.93080000      -4.09490000       1.41130000
