25
Properties=species:S:1:pos:R:3 gdb_120958=T pbc="F F F"
C       -0.00720000       1.60310000       0.00850000
C       -0.03890000       0.07290000      -0.03710000
C        0.70530000      -0.50690000      -1.24620000
C        0.72430000      -2.03620000      -1.30380000
C       -0.66420000      -2.71140000      -1.47000000
C       -0.38470000      -4.05780000      -2.14000000
C       -0.21030000      -4.06660000      -3.63750000
C        1.00460000      -3.99960000      -2.74750000
C        1.58630000      -2.61600000      -2.45640000
H        1.02200000       1.97620000       0.05890000
H       -0.46960000       2.03540000      -0.88610000
H       -0.54450000       1.99000000       0.88010000
H        0.40210000      -0.33010000       0.88460000
H       -1.08130000      -0.26950000      -0.04860000
H        0.25290000      -0.12050000      -2.17160000
H        1.73960000      -0.13490000      -1.23850000
H        1.15230000      -2.41120000      -0.36320000
H       -1.16980000      -2.83960000      -0.50870000
H       -1.32320000      -2.08870000      -2.09040000
H       -0.74720000      -4.96180000      -1.66330000
H       -0.40250000      -4.99560000      -4.16470000
H       -0.49000000      -3.17520000      -4.19360000
H        1.66330000      -4.86030000      -2.71550000
H        1.53010000      -1.96800000      -3.34120000
H        2.64250000      -2.66940000      -2.17520000
