11
Properties=species:S:1:pos:R:3 gdb_25359=T pbc="F F F"
O        0.02020000      -0.02820000      -0.00120000
C        0.01850000       1.17580000       0.00830000
C        1.24290000       1.99890000       0.00220000
N        1.30110000       3.29670000       0.01170000
C        2.65590000       3.57950000       0.00020000
C        3.35040000       2.40010000      -0.01670000
O        2.46240000       1.39150000      -0.01550000
C        3.18210000       4.89840000       0.00530000
N        3.63410000       5.96290000       0.00920000
H       -0.90040000       1.79170000       0.02290000
H        4.39690000       2.14660000      -0.02960000
