19
Properties=species:S:1:pos:R:3 gdb_84687=T pbc="F F F"
C       -0.66400000       1.36030000      -0.00900000
C       -0.00200000      -0.02230000      -0.05410000
C        1.01080000      -0.20470000      -1.16520000
C        2.15220000      -0.77040000      -0.76850000
C        2.13920000      -1.05610000       0.70550000
O        2.91450000      -0.11250000       1.49600000
C        1.72520000       0.60330000       1.88760000
C        0.79770000      -0.43520000       1.19930000
O       -0.04110000      -1.17310000       2.05150000
H        0.07430000       2.16630000       0.04550000
H       -1.26630000       1.52700000      -0.90790000
H       -1.32810000       1.44190000       0.85710000
H       -0.80320000      -0.76700000      -0.16200000
H        0.79070000       0.09870000      -2.18450000
H        3.00090000      -0.99410000      -1.40500000
H        2.37730000      -2.09040000       0.98100000
H        1.61200000       0.65170000       2.97900000
H        1.70450000       1.62250000       1.48540000
H        0.46420000      -1.43430000       2.82910000
