18
Properties=species:S:1:pos:R:3 gdb_110341=T pbc="F F F"
C       -0.02220000       1.27510000      -0.28210000
N       -0.00330000      -0.10770000       0.14080000
C       -1.08940000      -1.08890000       0.18030000
C       -1.17410000      -1.91370000      -1.07410000
C       -0.88120000      -1.43300000      -2.48020000
O       -0.39440000      -2.48010000      -3.30160000
C       -0.07410000      -2.19720000      -0.04050000
C        0.96450000      -1.07520000      -0.11670000
O        2.14010000      -0.98570000      -0.35030000
H        1.01300000       1.57950000      -0.45660000
H       -0.59530000       1.42190000      -1.20740000
H       -0.44850000       1.91700000       0.49540000
H       -1.86150000      -1.03110000       0.93710000
H       -1.95650000      -2.67120000      -1.03780000
H       -1.80840000      -1.08960000      -2.95170000
H       -0.18620000      -0.58270000      -2.46400000
H        0.45000000      -2.76400000      -2.93400000
H        0.02360000      -3.14380000       0.47080000
