23
Properties=species:S:1:pos:R:3 gdb_122062=T pbc="F F F"
C       -1.54240000      -0.27880000      -0.02210000
C       -0.02490000      -0.09670000       0.03760000
C        0.72000000      -0.62180000      -1.21300000
C        2.22680000      -0.27800000      -1.15250000
C        2.99610000      -0.62970000      -2.42760000
C        4.47590000      -0.28220000      -2.33450000
O        5.08620000      -0.63280000      -3.56760000
C        0.51060000      -2.05920000      -1.38780000
C        0.34930000      -3.24560000      -1.50400000
H       -1.97130000       0.25320000      -0.87870000
H       -1.80770000      -1.33550000      -0.11860000
H       -2.01820000       0.11000000       0.88330000
H        0.21690000       0.96750000       0.14730000
H        0.37790000      -0.60330000       0.92280000
H        0.29680000      -0.11080000      -2.09100000
H        2.31580000       0.79730000      -0.95100000
H        2.66990000      -0.79630000      -0.29240000
H        2.89890000      -1.69910000      -2.64220000
H        2.56820000      -0.09590000      -3.28550000
H        4.59540000       0.79380000      -2.12340000
H        4.93320000      -0.82930000      -1.49340000
H        6.02320000      -0.42550000      -3.50880000
H        0.20290000      -4.29070000      -1.62230000
