20
Properties=species:S:1:pos:R:3 gdb_61565=T pbc="F F F"
C       -0.15450000       1.38250000       0.15630000
N        0.08560000      -0.04420000       0.02270000
C        0.04040000      -0.88400000       1.21620000
C       -1.36040000      -1.15590000       1.72450000
C       -1.58510000      -1.48980000       3.14980000
N       -2.05920000      -0.20190000       2.60760000
C        0.01840000      -0.69000000      -1.19690000
N       -0.09090000       0.13580000      -2.30650000
O        0.01660000      -1.90620000      -1.30330000
H        0.56630000       1.97050000      -0.42640000
H       -1.16760000       1.67730000      -0.14420000
H       -0.01330000       1.66760000       1.20050000
H        0.51660000      -1.82990000       0.95170000
H        0.63610000      -0.40400000       2.00410000
H       -2.01200000      -1.61000000       0.98170000
H       -2.36810000      -2.18790000       3.43030000
H       -0.72490000      -1.48800000       3.81580000
H       -1.41880000       0.53480000       2.89720000
H        0.29610000       1.06510000      -2.27770000
H        0.07750000      -0.36410000      -3.16580000
