15
Properties=species:S:1:pos:R:3 gdb_124100=T pbc="F F F"
C       -0.02750000       1.51910000       0.09170000
O        1.29600000       1.94900000      -0.22960000
C        2.12560000       0.85030000      -0.60900000
C        1.28400000      -0.37250000      -0.37690000
C        1.52730000      -1.73460000      -0.49880000
N        0.59400000      -2.65420000      -0.23250000
N       -0.61860000      -2.27750000       0.16220000
C       -0.90670000      -0.97840000       0.29330000
C        0.02450000       0.01880000       0.03300000
H       -0.30050000       1.89560000       1.08670000
H       -0.74800000       1.93350000      -0.62930000
H        2.42740000       0.94700000      -1.66280000
H        3.03980000       0.85780000      -0.00050000
H        2.48800000      -2.13090000      -0.81520000
H       -1.91990000      -0.76140000       0.61940000
