17
Properties=species:S:1:pos:R:3 gdb_73491=T pbc="F F F"
O       -0.01390000       1.36020000      -0.03380000
C        0.04130000      -0.03550000      -0.04340000
C        0.71650000      -0.70180000      -1.24960000
O        0.04620000      -1.96840000      -1.35750000
C       -0.63870000      -2.11620000      -0.13760000
O        0.31570000      -2.14360000       0.94060000
C        0.28640000      -0.75990000       1.33700000
C       -1.20590000      -0.53370000       1.65670000
C       -1.33280000      -0.76100000       0.13160000
H        0.86760000       1.69940000       0.15580000
H        0.55360000      -0.12030000      -2.16320000
H        1.79400000      -0.85470000      -1.10650000
H       -1.21530000      -3.03900000      -0.16870000
H        1.11400000      -0.53620000       2.01050000
H       -1.67380000      -1.24700000       2.33780000
H       -1.43660000       0.49660000       1.92990000
H       -2.20850000      -0.51590000      -0.46600000
