20
Properties=species:S:1:pos:R:3 gdb_95990=T pbc="F F F"
N       -0.03310000       1.24700000       0.53530000
C        0.05800000       0.05520000      -0.11050000
O        1.11220000      -0.31410000      -0.61690000
C       -1.21850000      -0.76610000      -0.17230000
C       -1.97600000      -0.63160000      -1.51900000
C       -2.85060000      -1.91410000      -1.61090000
C       -2.35390000      -2.85420000      -0.47950000
C       -0.98830000      -2.29490000      -0.06980000
O       -0.03690000      -2.74480000      -1.01030000
H        0.77860000       1.84300000       0.56170000
H       -0.89330000       1.57580000       0.93620000
H       -1.88310000      -0.46880000       0.64910000
H       -2.56190000       0.29000000      -1.57060000
H       -1.24710000      -0.60660000      -2.33240000
H       -3.91250000      -1.68120000      -1.49120000
H       -2.73620000      -2.38150000      -2.59120000
H       -3.03580000      -2.82880000       0.37760000
H       -2.25730000      -3.89460000      -0.79760000
H       -0.70500000      -2.58920000       0.95350000
H        0.68380000      -2.09090000      -1.00470000
