17
Properties=species:S:1:pos:R:3 gdb_27552=T pbc="F F F"
O        0.56300000       1.18980000       0.24590000
C        0.26500000      -0.12630000       0.10630000
C        0.77650000      -1.13280000      -0.67510000
C        0.02130000      -2.31790000      -0.36480000
C       -0.90400000      -1.97280000       0.58870000
N       -0.74860000      -0.62560000       0.86750000
C        0.19950000      -3.66910000      -0.93170000
C        0.75460000      -3.87250000      -2.29750000
N        1.55440000      -4.24170000      -1.11980000
H        1.29150000       1.39990000      -0.34570000
H        1.58160000      -1.03400000      -1.38780000
H       -1.65340000      -2.56240000       1.09000000
H       -1.28020000      -0.08380000       1.52580000
H       -0.51740000      -4.40120000      -0.56680000
H        0.41850000      -4.71000000      -2.90330000
H        1.02590000      -2.98610000      -2.86520000
H        2.24100000      -3.51490000      -0.92900000
