17
Properties=species:S:1:pos:R:3 gdb_38854=T pbc="F F F"
C       -0.00590000       1.55510000      -0.04580000
O        1.37650000       1.92860000      -0.01080000
C        2.09010000       0.71890000       0.20070000
O        1.34010000      -0.28770000      -0.42550000
C        0.00880000       0.00420000       0.01580000
C       -0.18530000      -0.55340000       1.43210000
C        0.99070000      -0.16490000       2.32140000
O        2.21300000      -0.88750000       2.12520000
C        2.16650000       0.47120000       1.70650000
H       -0.54700000       2.00130000       0.79660000
H       -0.44170000       1.92210000      -0.98040000
H        3.06970000       0.78840000      -0.27860000
H       -0.68560000      -0.44810000      -0.69480000
H       -1.11730000      -0.16750000       1.86100000
H       -0.26740000      -1.64490000       1.39790000
H        0.76790000       0.03890000       3.36780000
H        2.78010000       1.17030000       2.27300000
