23
Properties=species:S:1:pos:R:3 gdb_116170=T pbc="F F F"
C       -0.07040000       1.38830000      -0.05250000
O       -0.03160000      -0.02810000      -0.05280000
C        0.61350000      -0.57860000      -1.14990000
C        0.72770000      -2.08530000      -0.95090000
C        1.32610000      -2.73670000      -2.20510000
C        0.55900000      -2.29730000      -3.45980000
C        0.44820000      -0.76850000      -3.51730000
C       -0.40650000      -0.26500000      -4.67060000
O       -0.14000000      -0.27560000      -2.31510000
H        0.94440000       1.81370000      -0.08620000
H       -0.64310000       1.77580000      -0.90160000
H       -0.55080000       1.69110000       0.88030000
H        1.62360000      -0.12970000      -1.26700000
H        1.33670000      -2.28930000      -0.06480000
H       -0.28100000      -2.46780000      -0.75820000
H        2.37970000      -2.44050000      -2.30250000
H        1.31910000      -3.82720000      -2.10870000
H        1.05310000      -2.66620000      -4.36590000
H       -0.45490000      -2.71720000      -3.44550000
H        1.46720000      -0.34900000      -3.61140000
H       -1.42370000      -0.66120000      -4.59190000
H       -0.46290000       0.82680000      -4.65660000
H        0.01640000      -0.58000000      -5.62940000
