26
Properties=species:S:1:pos:R:3 gdb_7192=T pbc="F F F"
C       -0.07910000       1.62660000      -0.10750000
C        0.01230000       0.10240000       0.01420000
C       -1.36440000      -0.56980000       0.08410000
C       -1.35240000      -2.11080000       0.10480000
C       -0.65640000      -2.66220000       1.35840000
C       -2.78910000      -2.64950000      -0.03980000
C       -2.91080000      -4.16480000      -0.24250000
C       -4.35530000      -4.61550000      -0.48080000
H        0.91380000       2.08490000      -0.15690000
H       -0.62710000       1.92050000      -1.00970000
H       -0.60330000       2.06110000       0.75120000
H        0.56770000      -0.30020000      -0.84380000
H        0.60160000      -0.15030000       0.90350000
H       -1.90180000      -0.20330000       0.97140000
H       -1.95550000      -0.23840000      -0.78090000
H       -0.78250000      -2.44880000      -0.77480000
H       -0.62030000      -3.75510000       1.35360000
H        0.37440000      -2.30620000       1.43860000
H       -1.18810000      -2.35050000       2.26630000
H       -3.37370000      -2.35400000       0.84410000
H       -3.26440000      -2.14710000      -0.89370000
H       -2.28830000      -4.46630000      -1.09580000
H       -2.51010000      -4.69590000       0.62890000
H       -4.41850000      -5.69890000      -0.62420000
H       -4.99630000      -4.35480000       0.36900000
H       -4.77890000      -4.13640000      -1.37060000
