14
Properties=species:S:1:pos:R:3 gdb_4759=T pbc="F F F"
C        0.00000000       1.39250000       0.02270000
N        0.00870000      -0.05970000      -0.03120000
C       -1.10440000      -0.65350000      -0.03060000
N       -1.30330000      -2.02570000      -0.07510000
C       -2.65860000      -2.29200000       0.00550000
O       -3.04140000      -3.58320000       0.00910000
C       -3.30660000      -1.11950000       0.04920000
O       -2.35900000      -0.08750000       0.01450000
H        1.02150000       1.74760000       0.18300000
H       -0.36410000       1.83790000      -0.91430000
H       -0.63020000       1.78650000       0.83260000
H       -0.55980000      -2.69470000       0.01560000
H       -4.00110000      -3.62730000       0.07370000
H       -4.34320000      -0.84060000       0.07720000
