14
Properties=species:S:1:pos:R:3 gdb_10588=T pbc="F F F"
C       -0.15300000       1.56220000       0.06530000
C       -0.05740000       0.05630000       0.10790000
N        1.15290000      -0.57670000      -0.37650000
C        0.84610000      -0.70430000       1.07110000
C        1.79140000       0.03060000       1.98190000
O        1.92850000      -0.22060000       3.14770000
C        0.33410000      -1.96020000       1.56610000
N       -0.07670000      -2.98090000       1.92070000
H        0.82340000       2.03430000       0.18410000
H       -0.55940000       1.87210000      -0.90280000
H       -0.82460000       1.92960000       0.84690000
H       -0.99660000      -0.46300000      -0.07660000
H        0.96590000      -1.45690000      -0.85050000
H        2.36020000       0.82920000       1.46500000
