17
Properties=species:S:1:pos:R:3 gdb_12399=T pbc="F F F"
N       -0.08190000       1.49730000       0.04800000
C       -0.05600000       0.04500000      -0.05810000
C       -1.45950000      -0.55660000       0.02620000
C       -1.36820000      -2.06930000      -0.16670000
C       -0.74780000      -2.37210000      -1.52210000
O        0.50360000      -1.69950000      -1.75720000
C        0.74880000      -0.45760000      -1.27580000
O        1.64660000       0.18740000      -1.74930000
H        0.85610000       1.84160000      -0.14390000
H       -0.65770000       1.87310000      -0.70250000
H        0.51520000      -0.33570000       0.80350000
H       -1.90920000      -0.29040000       0.98650000
H       -2.09650000      -0.12020000      -0.75650000
H       -0.75990000      -2.51420000       0.63020000
H       -2.35550000      -2.54110000      -0.12070000
H       -0.52540000      -3.43550000      -1.63980000
H       -1.43590000      -2.08160000      -2.32710000
