19
Properties=species:S:1:pos:R:3 gdb_84895=T pbc="F F F"
C       -0.02940000       1.61310000      -0.09910000
C        0.01230000       0.07800000      -0.02480000
C        0.68530000      -0.51670000      -1.23920000
C        1.91790000      -1.01560000      -1.19380000
C        2.73450000      -1.00230000       0.06770000
O        2.16030000      -0.21220000       1.09400000
C        0.75920000      -0.44710000       1.22680000
C        0.30180000       0.15500000       2.47520000
C       -0.11180000       0.63210000       3.49710000
H        0.98550000       2.01740000      -0.05490000
H       -0.48670000       1.94010000      -1.03800000
H       -0.60630000       2.03090000       0.73010000
H       -1.01810000      -0.29820000       0.02900000
H        0.12380000      -0.51260000      -2.17010000
H        2.38270000      -1.45980000      -2.07020000
H        2.89770000      -2.03700000       0.42340000
H        3.72640000      -0.57400000      -0.11860000
H        0.58250000      -1.53490000       1.28690000
H       -0.46570000       1.05480000       4.40480000
