18
Properties=species:S:1:pos:R:3 gdb_22968=T pbc="F F F"
O       -1.73540000      -1.57230000       2.04710000
N       -0.74290000      -1.44090000       1.07880000
C       -1.11990000      -0.71620000       0.08070000
C       -0.14360000      -0.54280000      -0.94870000
C        0.63220000      -0.35740000      -1.85080000
C       -2.45950000      -0.05480000      -0.09140000
C       -2.50720000       1.47260000      -0.40940000
C       -3.68300000       1.19440000      -1.38280000
C       -3.25130000      -0.29550000      -1.41470000
H       -1.30190000      -2.12750000       2.70430000
H        1.33360000      -0.20780000      -2.63420000
H       -3.07960000      -0.28540000       0.77330000
H       -2.67770000       2.14720000       0.43250000
H       -1.60820000       1.79120000      -0.94360000
H       -4.65340000       1.32600000      -0.89580000
H       -3.69340000       1.73750000      -2.33010000
H       -2.57290000      -0.50110000      -2.24690000
H       -4.02850000      -1.06260000      -1.39250000
