22
Properties=species:S:1:pos:R:3 gdb_87998=T pbc="F F F"
C       -0.18810000       1.32300000      -0.16190000
N        0.18790000      -0.07790000      -0.03170000
C        1.62050000      -0.38560000      -0.04440000
C        0.82070000      -0.49930000       1.19710000
C        0.97480000       0.25080000       2.51760000
O        0.61900000      -0.93490000       3.25180000
C        0.40650000      -1.72230000       2.03350000
C       -1.05310000      -2.12860000       1.89370000
C        1.35490000      -2.91190000       1.99800000
H        0.52130000       2.02020000       0.31430000
H       -0.25310000       1.57730000      -1.22420000
H       -1.17470000       1.47920000       0.28580000
H        1.91220000      -1.26840000      -0.60800000
H        2.32190000       0.44730000      -0.10700000
H        1.98400000       0.60420000       2.76390000
H        0.26350000       1.07160000       2.68380000
H       -1.70650000      -1.25500000       1.96040000
H       -1.22710000      -2.60960000       0.92670000
H       -1.32750000      -2.82850000       2.68940000
H        1.13490000      -3.59190000       2.82720000
H        1.24580000      -3.46970000       1.06180000
H        2.39390000      -2.58390000       2.08940000
