16
Properties=species:S:1:pos:R:3 gdb_50423=T pbc="F F F"
O       -0.04060000      -0.13710000       0.16960000
C       -0.00710000       1.06130000       0.21690000
C        1.25480000       1.90840000       0.05510000
C        1.46550000       2.84810000       1.28710000
C        2.66970000       2.23350000       1.96620000
C        3.19330000       1.27590000       1.20190000
N        2.46850000       1.09570000       0.01420000
C        2.78000000       0.17710000      -0.95350000
O        3.75530000      -0.53990000      -0.92330000
H       -0.92540000       1.67050000       0.38170000
H        1.12830000       2.48910000      -0.86740000
H        1.65170000       3.88270000       0.97590000
H        0.57430000       2.87140000       1.92620000
H        3.05480000       2.55880000       2.92090000
H        4.05830000       0.64910000       1.35580000
H        2.04680000       0.18020000      -1.77990000
