17
Properties=species:S:1:pos:R:3 gdb_85839=T pbc="F F F"
N       -0.27530000       1.04700000       0.68960000
C        0.04910000      -0.23300000       0.05520000
C        0.46030000      -1.28190000       1.13500000
C       -1.03910000      -1.63300000       1.31810000
O       -1.70920000      -0.86570000       2.29910000
C       -1.30080000      -1.05130000      -0.10470000
O       -2.47500000      -0.33330000      -0.28120000
C        0.90450000      -0.10830000      -1.12400000
N        1.58150000       0.00100000      -2.05590000
H        0.56010000       1.60960000       0.81980000
H       -0.91430000       1.56160000       0.08860000
H        1.02840000      -2.11010000       0.70630000
H        0.98550000      -0.88580000       2.00610000
H       -1.30360000      -2.67700000       1.49140000
H       -1.32400000       0.02590000       2.24820000
H       -1.19230000      -1.79690000      -0.89700000
H       -2.82480000      -0.19370000       0.61320000
