16
Properties=species:S:1:pos:R:3 gdb_9904=T pbc="F F F"
O        0.24010000       1.06590000      -0.74940000
C       -0.01780000       0.12020000       0.28060000
C       -1.35190000      -0.47200000       0.22090000
C       -2.46590000      -0.93240000       0.16500000
C       -3.80630000      -1.45240000       0.10610000
O       -4.69460000      -0.96640000       1.08030000
C       -4.39310000      -1.82040000      -1.24960000
C       -4.03810000      -2.89710000      -0.25710000
H       -0.48550000       1.69870000      -0.74610000
H        0.74450000      -0.65840000       0.16430000
H        0.13400000       0.56240000       1.27850000
H       -4.76970000      -0.01350000       0.95590000
H       -5.44380000      -1.58770000      -1.38050000
H       -3.77080000      -1.69420000      -2.12760000
H       -3.17060000      -3.51690000      -0.44650000
H       -4.85050000      -3.37880000       0.27460000
