23
Properties=species:S:1:pos:R:3 gdb_121400=T pbc="F F F"
C       -0.00730000       1.49630000      -0.05830000
C        0.06650000      -0.01820000       0.02560000
O        0.71840000      -0.49470000      -1.14740000
C        0.78470000      -1.87360000      -1.25220000
C        1.34620000      -2.24080000      -2.62190000
C        1.53970000      -3.76110000      -2.72710000
C        2.34720000      -4.28360000      -1.53040000
C        1.72630000      -3.78270000      -0.22460000
O        1.62130000      -2.36770000      -0.21310000
H        0.99670000       1.92600000      -0.11710000
H       -0.56550000       1.80830000      -0.94570000
H       -0.50610000       1.90140000       0.82730000
H        0.62000000      -0.33730000       0.91660000
H       -0.94370000      -0.45510000       0.08820000
H       -0.22450000      -2.32080000      -1.11970000
H        0.67280000      -1.86910000      -3.40050000
H        2.30390000      -1.71990000      -2.73270000
H        0.55710000      -4.25280000      -2.74220000
H        2.03010000      -4.01820000      -3.67150000
H        2.38360000      -5.37910000      -1.52850000
H        3.38050000      -3.92100000      -1.59040000
H        0.72950000      -4.23800000      -0.08570000
H        2.33790000      -4.05030000       0.64170000
