21
Properties=species:S:1:pos:R:3 gdb_39479=T pbc="F F F"
C       -0.15060000       1.33800000      -0.37810000
C        1.26600000       0.92550000      -0.09630000
C        2.06040000       1.36220000       1.14170000
C        2.23970000       0.35200000       2.29370000
O        1.31820000       0.49450000       3.36290000
C       -0.05500000       0.50930000       2.98710000
C       -0.49240000      -0.73210000       2.25700000
C       -0.37030000      -0.96890000       0.94690000
C        0.16270000      -0.13510000      -0.16250000
H       -0.69790000       1.84560000       0.40820000
H       -0.42190000       1.66010000      -1.37810000
H        1.89020000       0.89010000      -0.98490000
H        3.06510000       1.61550000       0.78690000
H        1.66130000       2.29320000       1.55990000
H        2.22630000      -0.67200000       1.89480000
H        3.21430000       0.51020000       2.76570000
H       -0.60090000       0.60570000       3.92990000
H       -0.27300000       1.41120000       2.40020000
H       -0.88620000      -1.53360000       2.87690000
H       -0.70210000      -1.94810000       0.60460000
H        0.19990000      -0.70140000      -1.08820000
