21
Properties=species:S:1:pos:R:3 gdb_83308=T pbc="F F F"
C       -0.16690000       1.68280000       0.09430000
C        0.05590000       0.18810000      -0.01720000
C        1.35140000      -0.48210000      -0.41240000
C        2.67250000       0.27050000      -0.28850000
C        2.78780000       0.73400000       1.18660000
C        1.76260000      -0.09610000       1.99250000
C        1.05080000       0.66930000       3.09010000
O        1.21590000       1.83330000       3.35520000
C        0.78180000      -0.69970000       0.97630000
H        0.68850000       2.22420000       0.49910000
H       -0.38800000       2.10420000      -0.89280000
H       -1.02250000       1.90000000       0.74290000
H       -0.81160000      -0.31650000      -0.43900000
H        1.29960000      -1.27140000      -1.15540000
H        3.48830000      -0.41650000      -0.53820000
H        2.74990000       1.11220000      -0.98570000
H        3.80030000       0.59620000       1.57490000
H        2.56230000       1.79560000       1.30390000
H        2.25230000      -0.94410000       2.49420000
H        0.31520000       0.05680000       3.66200000
H        0.30930000      -1.63780000       1.24770000
