17
Properties=species:S:1:pos:R:3 gdb_66044=T pbc="F F F"
O       -0.01990000       1.40100000       0.02550000
C        0.03850000      -0.01420000       0.00340000
C        0.21350000      -0.61480000       1.43750000
C       -1.32810000      -0.65140000       1.58230000
C       -1.44130000      -0.56250000       0.02780000
C       -2.49190000       0.22420000      -0.57580000
C       -3.38320000       0.86650000      -1.06380000
C        0.92250000      -0.50400000      -1.04410000
C        1.67670000      -0.90410000      -1.89130000
H        0.88640000       1.72830000       0.03450000
H        0.65840000      -1.61210000       1.40660000
H        0.77530000       0.01480000       2.13010000
H       -1.77400000      -1.52910000       2.05170000
H       -1.71770000       0.25150000       2.05360000
H       -1.43020000      -1.57010000      -0.39890000
H       -4.16130000       1.44380000      -1.49790000
H        2.33280000      -1.25650000      -2.64870000
