19
Properties=species:S:1:pos:R:3 gdb_99082=T pbc="F F F"
C       -0.73940000       1.36260000      -0.39310000
C        0.21780000       0.21680000      -0.07500000
C        0.76560000      -0.48260000      -1.30920000
O        0.54540000      -0.07640000      -2.43090000
C        1.60890000      -1.72420000      -1.06440000
C        2.41490000      -2.20540000      -2.28850000
O        3.38150000      -3.13700000      -1.88450000
C        1.51970000      -2.81550000      -3.35530000
O        1.68260000      -3.95670000      -3.72040000
H       -0.25050000       2.11630000      -1.01470000
H       -1.61180000       1.00250000      -0.94470000
H       -1.08610000       1.84120000       0.52670000
H        1.08100000       0.57220000       0.50570000
H       -0.25670000      -0.54050000       0.56400000
H        2.31740000      -1.53780000      -0.24940000
H        0.95340000      -2.52730000      -0.70020000
H        2.88880000      -1.32180000      -2.74870000
H        3.20850000      -3.93160000      -2.41570000
H        0.73200000      -2.16390000      -3.76950000
