18
Properties=species:S:1:pos:R:3 gdb_4772=T pbc="F F F"
C        0.06900000       1.54080000       0.24600000
C       -0.01870000       0.04230000      -0.09220000
C       -1.41730000      -0.46170000      -0.19470000
C       -2.15770000      -0.98070000      -1.21090000
C       -3.46360000      -1.27380000      -0.68000000
C       -4.63280000      -1.86010000      -1.40810000
C       -3.40530000      -0.90320000       0.62560000
O       -2.17410000      -0.40860000       0.94040000
H        1.11270000       1.85900000       0.32900000
H       -0.41350000       2.14450000      -0.52870000
H       -0.42930000       1.75210000       1.19590000
H        0.48070000      -0.15890000      -1.04540000
H        0.52190000      -0.53150000       0.67200000
H       -1.81980000      -1.14180000      -2.22390000
H       -4.39640000      -2.84830000      -1.81930000
H       -5.49510000      -1.97380000      -0.74500000
H       -4.94090000      -1.22860000      -2.24940000
H       -4.12160000      -0.92700000       1.43100000
