23
Properties=species:S:1:pos:R:3 gdb_122574=T pbc="F F F"
C       -0.13690000       1.50000000       0.04790000
C        0.12110000      -0.00780000      -0.00380000
C        0.68810000      -0.54760000       1.30290000
O        0.90750000      -1.93490000       1.15980000
C        1.48080000      -2.56380000       2.29620000
C        0.42220000      -2.85950000       3.40020000
C        0.13530000      -4.33170000       3.23840000
C        0.98510000      -4.92030000       2.40010000
C        1.99670000      -3.95150000       1.84220000
H        0.78550000       2.05700000       0.24680000
H       -0.54420000       1.86220000      -0.90050000
H       -0.85390000       1.75630000       0.83580000
H       -0.80740000      -0.54530000      -0.22790000
H        0.82220000      -0.24740000      -0.81150000
H        1.63630000      -0.03730000       1.54980000
H       -0.01050000      -0.33640000       2.13020000
H        2.29480000      -1.93190000       2.68000000
H        0.81010000      -2.63620000       4.40360000
H       -0.46800000      -2.23460000       3.26570000
H       -0.66860000      -4.82980000       3.76910000
H        0.98470000      -5.97390000       2.14340000
H        2.06700000      -3.97420000       0.74960000
H        3.00320000      -4.15500000       2.23110000
