21
Properties=species:S:1:pos:R:3 gdb_7555=T pbc="F F F"
C        0.04530000       1.37380000       0.21720000
O        0.01770000      -0.03150000       0.22480000
C       -1.24490000      -0.55740000      -0.13320000
C       -1.17070000      -2.06830000      -0.08960000
C       -0.01190000      -2.65680000      -0.87120000
N       -1.52140000      -2.66840000       1.21320000
C       -2.40980000      -2.88640000       0.05690000
C       -3.82150000      -2.35250000       0.14580000
H        1.05500000       1.68410000       0.49740000
H       -0.18850000       1.78350000      -0.77910000
H       -0.67010000       1.80170000       0.93760000
H       -2.01730000      -0.19440000       0.55850000
H       -1.51810000      -0.22360000      -1.15090000
H        0.94060000      -2.30480000      -0.46640000
H       -0.03010000      -3.75080000      -0.83130000
H       -0.05430000      -2.35780000      -1.92480000
H       -0.94810000      -3.49010000       1.38810000
H       -2.34930000      -3.86400000      -0.42310000
H       -3.86270000      -1.40670000       0.68940000
H       -4.24750000      -2.20120000      -0.85230000
H       -4.46150000      -3.06540000       0.67700000
