20
Properties=species:S:1:pos:R:3 gdb_69769=T pbc="F F F"
C       -0.09470000       1.49660000       0.08910000
C        0.00510000      -0.01190000       0.04410000
C       -1.22590000      -0.74040000      -0.51640000
C       -1.48320000      -2.06660000       0.21690000
C       -0.24500000      -2.98240000       0.26080000
C        0.09370000      -2.09380000       1.47360000
O       -1.33980000      -1.84220000       1.64990000
C        0.74530000      -0.76560000       1.09860000
N        1.36210000      -0.52620000      -0.21980000
H        0.83280000       1.92840000       0.47260000
H       -0.26770000       1.90720000      -0.91290000
H       -0.92380000       1.81330000       0.73110000
H       -2.10190000      -0.09950000      -0.37020000
H       -1.13450000      -0.90740000      -1.59830000
H       -2.45370000      -2.50030000      -0.03810000
H       -0.50720000      -3.99130000       0.58210000
H        0.42700000      -3.03810000      -0.59830000
H        0.53810000      -2.55340000       2.35880000
H        1.22180000      -0.22790000       1.91480000
H        1.33950000      -1.36410000      -0.79320000
