20
Properties=species:S:1:pos:R:3 gdb_84806=T pbc="F F F"
C        0.08580000       1.51790000      -0.17230000
C        0.01280000       0.02150000       0.13890000
N        0.30700000      -0.76040000      -1.08250000
C        1.34530000      -1.43690000      -0.82150000
O        1.91350000      -1.37350000       0.40270000
C        1.03160000      -0.52220000       1.19900000
C        1.85200000       0.46890000       1.97260000
C        1.33940000       0.97120000       3.30250000
C        2.52190000       0.04040000       3.25360000
H        1.07600000       1.79890000      -0.54360000
H       -0.64130000       1.75990000      -0.95160000
H       -0.13800000       2.11900000       0.71370000
H       -1.00700000      -0.21300000       0.46200000
H        1.85760000      -2.09260000      -1.51800000
H        0.51960000      -1.18900000       1.90420000
H        2.39410000       1.18290000       1.36150000
H        1.50710000       2.01270000       3.55160000
H        0.39670000       0.57590000       3.66670000
H        2.37780000      -0.98420000       3.57970000
H        3.50470000       0.44220000       3.47150000
