20
Properties=species:S:1:pos:R:3 gdb_111175=T pbc="F F F"
C        0.45340000       1.52100000      -0.38060000
C        0.00380000       0.07370000      -0.14160000
C        0.69010000      -0.53350000       1.06950000
C        0.82590000      -2.05660000       1.32580000
C        1.90840000      -2.03200000       0.23060000
N        2.23420000      -0.74910000       1.02130000
C        2.00110000      -1.65950000       2.26600000
C        1.77210000      -1.01770000       3.54340000
C        1.60850000      -0.53110000       4.63110000
H        1.53000000       1.56510000      -0.56790000
H       -0.06480000       1.95760000      -1.23950000
H        0.24400000       2.14860000       0.49230000
H       -1.07730000       0.04790000       0.04930000
H        0.16220000      -0.51550000      -1.04980000
H        0.42330000       0.05110000       1.95510000
H        0.04360000      -2.80020000       1.51530000
H        2.70290000      -2.78190000       0.27970000
H        1.61320000      -1.85370000      -0.80170000
H        2.79820000      -2.40360000       2.35740000
H        1.46250000      -0.09110000       5.58670000
