19
Properties=species:S:1:pos:R:3 gdb_107170=T pbc="F F F"
C       -0.10750000       1.51520000      -0.08310000
C        0.11740000       0.01940000       0.00910000
C        1.44370000      -0.67680000      -0.17530000
C        2.56290000       0.09250000       0.48810000
O        3.08220000      -0.69860000       1.58030000
C        1.86760000       0.05730000       1.79100000
C        1.91180000       1.01450000       2.94780000
O        3.16500000       1.65680000       3.03550000
C        0.70990000      -0.71270000       1.19130000
H        0.72050000       2.08600000       0.34250000
H       -0.21920000       1.82130000      -1.12900000
H       -1.02280000       1.80260000       0.44580000
H       -0.69370000      -0.55470000      -0.43800000
H        1.57650000      -1.50440000      -0.86120000
H        3.22650000       0.84500000       0.08050000
H        1.14780000       1.78980000       2.82400000
H        1.66860000       0.46560000       3.87430000
H        3.81930000       0.96530000       2.86920000
H        0.22640000      -1.56830000       1.64730000
