18
Properties=species:S:1:pos:R:3 gdb_34957=T pbc="F F F"
C       -0.20980000      -1.26890000      -0.16230000
C       -0.12030000      -0.07230000      -0.07320000
C       -0.00740000       1.36640000       0.05470000
C       -0.27980000       2.04290000       1.42600000
C        0.45660000       1.35030000       2.60040000
C        1.80570000       1.95690000       2.12500000
C        2.35130000       1.26720000       0.85990000
N        1.37810000       1.98800000      -0.03470000
C        1.00700000       2.88000000       1.14990000
H       -0.29560000      -2.32360000      -0.25410000
H       -0.61300000       1.84550000      -0.72380000
H       -1.28000000       2.44030000       1.60080000
H        0.14850000       1.79260000       3.55210000
H        0.38060000       0.26150000       2.67420000
H        2.51090000       2.29770000       2.88380000
H        3.36450000       1.59440000       0.60550000
H        2.30800000       0.17530000       0.80380000
H        1.07930000       3.96160000       1.04500000
