17
Properties=species:S:1:pos:R:3 gdb_123470=T pbc="F F F"
C        0.13410000       1.34110000       0.59520000
C        0.00060000      -0.05700000       0.04030000
C       -1.30260000      -0.58670000      -0.37560000
O       -0.34800000      -0.14920000      -1.34430000
N        1.40190000       1.95290000       0.24230000
C        1.86550000       2.24400000      -1.00050000
C        3.11530000       2.80300000      -0.83630000
C        3.31880000       2.80440000       0.55880000
N        2.28060000       2.28840000       1.21180000
H       -0.69260000       1.95770000       0.22480000
H        0.10030000       1.32740000       1.68680000
H        0.77600000      -0.75630000       0.35310000
H       -1.48120000      -1.65990000      -0.34490000
H       -2.19220000       0.03480000      -0.28130000
H        1.27870000       2.02020000      -1.87700000
H        3.77780000       3.15640000      -1.60960000
H        4.17390000       3.16040000       1.11460000
