18
Properties=species:S:1:pos:R:3 gdb_112242=T pbc="F F F"
C       -0.00490000       1.52470000       0.00770000
C       -0.20580000       0.00950000      -0.10470000
C        0.62370000      -0.59050000      -1.23430000
N        2.08430000      -0.59270000      -1.00900000
C        2.27730000      -1.93590000      -1.16610000
O        3.24150000      -2.64900000      -1.14370000
C        0.74070000      -2.13950000      -1.40880000
C        0.06700000      -3.12770000      -0.49660000
O       -0.80010000      -2.88550000       0.30390000
H        1.03540000       1.77610000       0.24380000
H       -0.26840000       2.03510000      -0.92580000
H       -0.62890000       1.94250000       0.80260000
H        0.05170000      -0.47960000       0.83800000
H       -1.25990000      -0.21860000      -0.29130000
H        0.36160000      -0.10280000      -2.18250000
H        2.75700000       0.15690000      -0.94200000
H        0.58460000      -2.47700000      -2.44030000
H        0.45810000      -4.16100000      -0.62740000
