15
Properties=species:S:1:pos:R:3 gdb_3457=T pbc="F F F"
O        0.00240000      -0.00410000       0.04700000
C       -0.01460000       1.18850000      -0.01790000
C       -1.08310000       2.29870000       0.04710000
C       -0.02590000       3.00790000       0.96000000
C        1.02500000       2.32720000       0.01850000
C        0.72950000       3.02240000      -1.32960000
C       -0.84330000       3.00120000      -1.30830000
H       -2.10670000       2.10850000       0.36240000
H       -0.04070000       4.10080000       0.95550000
H       -0.00680000       2.62360000       1.98100000
H        2.06150000       2.16480000       0.30580000
H        1.13080000       4.03900000      -1.35430000
H        1.14600000       2.47510000      -2.17910000
H       -1.26780000       2.44250000      -2.14630000
H       -1.27240000       4.00660000      -1.32160000
