19
Properties=species:S:1:pos:R:3 gdb_60314=T pbc="F F F"
C       -0.27180000       0.29330000      -0.62750000
C        0.59890000      -0.06790000       0.57710000
C        2.02250000       0.45710000       0.44140000
O        0.07040000       0.50640000       1.78190000
C       -0.99540000      -0.19250000       2.35950000
C       -0.59610000      -1.43590000       3.16530000
O       -1.40370000      -2.29820000       3.43140000
C        0.77790000      -1.50150000       3.63450000
C        1.90390000      -1.59110000       4.05140000
H       -0.30500000       1.37980000      -0.75530000
H        0.13650000      -0.15220000      -1.54010000
H       -1.29750000      -0.06970000      -0.51330000
H        0.63040000      -1.16330000       0.68720000
H        2.01640000       1.54990000       0.37840000
H        2.62010000       0.16590000       1.30830000
H        2.49460000       0.06130000      -0.46270000
H       -1.48080000       0.49240000       3.06730000
H       -1.76300000      -0.50740000       1.63980000
H        2.89610000      -1.67180000       4.42440000
