25
Properties=species:S:1:pos:R:3 gdb_114547=T pbc="F F F"
C       -0.00680000       1.56580000       0.02120000
C       -0.07010000       0.03540000      -0.03790000
C        0.72370000      -0.55380000      -1.20760000
C        2.27990000      -0.37970000      -1.11280000
C        2.71060000      -1.84810000      -1.28550000
C        1.73170000      -2.58440000      -0.33120000
C        0.66410000      -2.10090000      -1.36620000
C       -0.69370000      -2.75430000      -1.49350000
C        1.78120000      -2.32350000      -2.43520000
H        1.02250000       1.92150000       0.13650000
H       -0.40810000       2.01180000      -0.89600000
H       -0.58870000       1.95530000       0.86250000
H        0.29540000      -0.38050000       0.90980000
H       -1.12010000      -0.27240000      -0.12130000
H        0.34720000      -0.09280000      -2.13100000
H        2.68470000       0.27180000      -1.89300000
H        2.59120000       0.02690000      -0.14440000
H        3.78070000      -2.05880000      -1.28560000
H        1.85790000      -3.67020000      -0.35270000
H        1.65750000      -2.24040000       0.70500000
H       -1.29990000      -2.61000000      -0.59240000
H       -1.25530000      -2.33830000      -2.33910000
H       -0.59860000      -3.83310000      -1.65700000
H        1.74250000      -1.72570000      -3.35230000
H        1.91550000      -3.38050000      -2.68090000
