22
Properties=species:S:1:pos:R:3 gdb_59741=T pbc="F F F"
C       -0.08090000       1.54720000       0.08380000
C        0.04450000       0.01900000       0.02300000
C        0.68720000      -0.45620000      -1.28860000
N        0.75830000      -0.50580000       1.19510000
C        0.21270000      -1.58680000       2.00500000
C        1.16930000      -1.65080000       3.21270000
C        2.49130000      -1.10760000       2.65280000
C        2.06880000      -0.22290000       1.47720000
O        2.77330000       0.57070000       0.88070000
H        0.90660000       2.00950000       0.04380000
H       -0.67630000       1.90720000      -0.76120000
H       -0.57490000       1.85950000       1.00880000
H       -0.96300000      -0.40830000       0.08700000
H        1.70050000      -0.05870000      -1.37700000
H        0.73590000      -1.54920000      -1.32810000
H        0.09860000      -0.11200000      -2.14470000
H       -0.81980000      -1.36930000       2.29950000
H        0.20090000      -2.53600000       1.44650000
H        0.79940000      -0.99320000       4.00510000
H        1.24520000      -2.65880000       3.62530000
H        3.08810000      -0.53780000       3.36710000
H        3.13170000      -1.90500000       2.25710000
