14
Properties=species:S:1:pos:R:3 gdb_44903=T pbc="F F F"
O       -0.01480000       0.06490000       0.03880000
C        0.05370000       1.25230000       0.01670000
O       -1.03710000       2.10170000       0.04700000
C       -0.40840000       3.40580000      -0.01540000
C        0.65980000       3.22310000      -1.11430000
C        1.22890000       2.22220000      -0.04860000
C        0.72810000       3.24810000       1.05000000
C        1.58180000       4.40290000       1.25540000
N        2.25720000       5.32580000       1.42540000
H       -1.16040000       4.18910000       0.01580000
H        0.32220000       2.81540000      -2.06790000
H        1.29790000       4.09560000      -1.25530000
H        2.22880000       1.80060000      -0.06070000
H        0.41520000       2.82860000       2.00920000
