19
Properties=species:S:1:pos:R:3 gdb_117245=T pbc="F F F"
C        0.70350000       1.61810000      -0.56810000
O        0.59690000       0.34800000      -1.17250000
C        0.60990000      -0.70570000      -0.24260000
C        0.52840000      -2.06220000      -0.94170000
O        0.27840000      -3.05490000      -0.29840000
C        0.78580000      -2.07860000      -2.42130000
O        1.07920000      -3.34470000      -3.00770000
C       -0.15780000      -2.74750000      -3.36070000
C       -1.41960000      -3.45150000      -2.93940000
H       -0.13330000       1.80990000       0.12050000
H        1.64420000       1.72080000      -0.00550000
H        0.68390000       2.36160000      -1.36780000
H        1.53490000      -0.69880000       0.36140000
H       -0.23170000      -0.64090000       0.46480000
H        1.36420000      -1.24050000      -2.80100000
H       -0.17180000      -2.32700000      -4.36890000
H       -1.34070000      -3.81250000      -1.91340000
H       -2.27820000      -2.77720000      -3.02610000
H       -1.59890000      -4.30750000      -3.59840000
