16
Properties=species:S:1:pos:R:3 gdb_80231=T pbc="F F F"
C       -0.10750000       1.60020000      -0.01910000
C        0.02740000       0.08590000       0.01550000
C        1.20480000      -0.60310000      -0.73600000
O        2.37610000       0.00770000      -0.13150000
C        2.06240000       0.01140000       1.22270000
N        2.78430000       0.43760000       2.15870000
C        0.69440000      -0.61750000       1.27320000
C        0.94710000      -1.77050000       0.24890000
O        0.81780000      -2.95030000       0.21700000
H        0.84520000       2.09660000       0.17670000
H       -0.46860000       1.92580000      -0.99950000
H       -0.82770000       1.93660000       0.73250000
H       -0.91920000      -0.40520000      -0.22990000
H        1.31810000      -0.67190000      -1.81400000
H        3.67590000       0.78820000       1.80350000
H        0.22000000      -0.74100000       2.24040000
