18
Properties=species:S:1:pos:R:3 gdb_66809=T pbc="F F F"
C       -0.15960000       1.52100000       0.02460000
C        0.08420000       0.04440000      -0.01120000
C        0.12960000      -0.84300000      -1.19710000
C        1.13430000      -1.95940000      -0.98840000
C        0.65470000      -2.82690000       0.15330000
C        1.76810000      -1.81040000       0.37870000
C        0.77390000      -0.83670000       1.06400000
C       -0.35900000      -1.86870000       0.80860000
N       -1.01230000      -0.97610000      -0.23920000
H        0.78030000       2.07550000      -0.08230000
H       -0.82720000       1.82040000      -0.78890000
H       -0.62470000       1.82480000       0.96910000
H       -0.13650000      -0.49490000      -2.18830000
H        1.68620000      -2.39410000      -1.81100000
H        0.67000000      -3.90950000       0.15480000
H        2.81920000      -1.96320000       0.59120000
H        0.99240000      -0.43530000       2.05030000
H       -1.04040000      -2.21950000       1.57970000
