19
Properties=species:S:1:pos:R:3 gdb_47242=T pbc="F F F"
O        0.07010000      -0.02370000       0.20140000
C       -0.01470000       1.17500000       0.08010000
C       -1.35660000       1.89520000       0.10290000
C       -1.51510000       2.83960000      -1.10890000
C       -1.34700000       2.08860000      -2.40030000
C       -0.18050000       1.86720000      -3.01910000
C        1.14880000       2.34000000      -2.62610000
C        1.72040000       2.44080000      -1.41820000
C        1.24350000       2.04070000      -0.04000000
H       -2.14010000       1.13320000       0.11650000
H       -1.42880000       2.46970000       1.03670000
H       -2.50200000       3.31140000      -1.06600000
H       -0.77120000       3.64170000      -1.04700000
H       -2.24850000       1.66710000      -2.83910000
H       -0.20540000       1.32460000      -3.96260000
H        1.77670000       2.63180000      -3.46760000
H        2.73180000       2.84350000      -1.39660000
H        1.11360000       2.95280000       0.56080000
H        2.04880000       1.46780000       0.43440000
