19
Properties=species:S:1:pos:R:3 gdb_89555=T pbc="F F F"
O        0.52750000       0.40460000      -1.12080000
C       -0.09810000      -0.31420000      -0.09200000
C        0.28980000      -0.06500000       1.39030000
C       -1.19400000      -0.30580000       1.76510000
C       -1.57400000      -0.01870000       0.28780000
C       -1.60540000      -1.69710000       2.34640000
C       -2.43710000      -0.95530000       3.40560000
O       -3.22340000      -1.30480000       4.23610000
C       -1.90710000       0.41200000       2.94520000
H        0.43560000       1.34390000      -0.92870000
H        0.03010000      -1.36890000      -0.35260000
H        1.05190000      -0.70250000       1.84650000
H        0.56970000       0.98450000       1.54330000
H       -1.80370000       1.04360000       0.14010000
H       -2.36350000      -0.61700000      -0.17460000
H       -2.17280000      -2.36730000       1.69340000
H       -0.77990000      -2.26510000       2.79010000
H       -1.22540000       0.86240000       3.67580000
H       -2.67360000       1.15020000       2.68920000
