17
Properties=species:S:1:pos:R:3 gdb_105979=T pbc="F F F"
O        0.15630000       1.33730000       0.39390000
C       -0.00440000       0.02180000      -0.12500000
C       -1.40980000      -0.47630000      -0.08020000
C       -2.27600000      -0.90000000       1.09900000
C       -3.55760000      -0.49020000       0.31770000
C       -2.69040000      -0.05250000      -0.87450000
C       -3.21910000      -1.47880000      -0.77050000
O       -4.09920000      -2.17320000      -1.55330000
C       -1.92560000      -1.91000000       0.01290000
H       -0.43440000       1.91780000      -0.09660000
H        0.38270000      -0.04330000      -1.15580000
H        0.62890000      -0.62170000       0.49650000
H       -2.04060000      -0.91890000       2.15510000
H       -4.52160000      -0.11300000       0.62940000
H       -2.88830000       0.71580000      -1.61120000
H       -3.69620000      -2.31390000      -2.41840000
H       -1.36520000      -2.83360000       0.08410000
