16
Properties=species:S:1:pos:R:3 gdb_130072=T pbc="F F F"
N       -0.06610000       1.27480000      -0.25010000
C       -0.02480000      -0.08760000      -0.07360000
N       -1.07940000      -0.89120000      -0.18980000
N       -0.50840000      -2.08700000       0.01060000
C       -1.24580000      -3.33280000      -0.05190000
C       -1.69330000      -3.65500000      -1.47800000
O       -2.40810000      -4.87320000      -1.39440000
N        0.79040000      -2.03150000       0.23030000
N        1.12470000      -0.76290000       0.18620000
H        0.70390000       1.75730000       0.18910000
H       -0.96310000       1.69400000      -0.05630000
H       -0.58070000      -4.11090000       0.32460000
H       -2.11920000      -3.26030000       0.60100000
H       -2.31560000      -2.83180000      -1.85580000
H       -0.80720000      -3.73700000      -2.12550000
H       -2.72730000      -5.09920000      -2.27250000
