16
Properties=species:S:1:pos:R:3 gdb_14908=T pbc="F F F"
N       -0.06740000      -1.14990000      -0.12110000
C       -0.04330000       0.00360000      -0.06390000
C       -0.02860000       1.47770000      -0.03120000
N       -0.73480000       1.94060000       1.16180000
C       -0.56470000       3.37580000       1.38650000
C        0.89940000       3.65830000       1.73160000
C        1.81140000       2.96430000       0.75740000
C        1.39880000       1.99170000      -0.04950000
H       -0.51510000       1.80540000      -0.97290000
H       -1.71620000       1.69810000       1.09280000
H       -0.85100000       3.98130000       0.50680000
H       -1.22020000       3.66870000       2.21130000
H        1.08500000       4.73890000       1.71750000
H        1.11900000       3.31770000       2.75200000
H        2.84780000       3.28890000       0.71490000
H        2.06430000       1.51900000      -0.76370000
