16
Properties=species:S:1:pos:R:3 gdb_80142=T pbc="F F F"
O       -0.25870000       1.45800000       0.20240000
C       -0.05830000       0.08750000       0.09710000
C       -0.40910000      -0.75540000       1.32190000
N       -0.64820000      -0.12500000       2.56200000
C       -1.72720000       0.45920000       2.86500000
N       -2.91440000       0.62720000       2.14710000
C       -3.19510000       0.44010000       0.80150000
N       -2.54920000      -0.15910000      -0.11330000
C       -1.30210000      -0.79900000       0.09090000
H       -0.98220000       1.69170000      -0.39220000
H        0.80560000      -0.19580000      -0.50280000
H        0.21860000      -1.63670000       1.43220000
H       -1.80320000       0.92000000       3.85080000
H       -3.61540000       1.16100000       2.64020000
H       -4.14870000       0.89690000       0.53150000
H       -1.21320000      -1.70740000      -0.49960000
