16
Properties=species:S:1:pos:R:3 gdb_87671=T pbc="F F F"
O       -0.09080000       1.37470000      -0.07330000
C        0.01710000      -0.00360000       0.02610000
C       -0.40360000      -0.72910000       1.28030000
C       -1.26340000      -0.82340000       0.03550000
O       -2.44010000      -0.03870000       0.02720000
C       -3.39530000      -0.66370000      -0.75030000
N       -4.51900000      -0.10420000      -0.91260000
C       -2.80510000      -1.92450000      -1.22910000
C       -1.55350000      -2.01770000      -0.76490000
H       -1.03150000       1.58810000      -0.13710000
H        0.86480000      -0.39490000      -0.52970000
H        0.14360000      -1.61330000       1.59010000
H       -0.81510000      -0.12610000       2.08230000
H       -5.11440000      -0.68260000      -1.50200000
H       -3.33620000      -2.62300000      -1.85960000
H       -0.83890000      -2.81280000      -0.92960000
