19
Properties=species:S:1:pos:R:3 gdb_70461=T pbc="F F F"
C       -0.10110000       1.53770000       0.13450000
C        0.11080000       0.05910000       0.03410000
N       -0.78280000      -0.91660000       0.70720000
C        0.67900000      -0.94150000       0.98180000
C        1.30300000      -1.75560000      -0.15270000
C        0.71230000      -0.70780000      -1.16370000
C       -0.28600000      -1.20310000      -2.21890000
C        0.33280000      -2.08990000      -3.20090000
N        0.84410000      -2.78760000      -3.96770000
H        0.78610000       2.08640000      -0.19950000
H       -0.94700000       1.86450000      -0.48210000
H       -0.30940000       1.83470000       1.16820000
H       -1.22780000      -0.42630000       1.48310000
H        1.04970000      -0.80670000       1.99100000
H        2.39420000      -1.75800000      -0.14760000
H        0.93550000      -2.78040000      -0.24730000
H        1.51130000      -0.13320000      -1.63920000
H       -1.09860000      -1.73420000      -1.71290000
H       -0.73260000      -0.35470000      -2.75150000
