17
Properties=species:S:1:pos:R:3 gdb_110766=T pbc="F F F"
O       -0.00490000       1.16810000      -0.64220000
C        0.03960000      -0.02710000       0.12700000
C       -1.34170000      -0.63110000       0.11640000
C       -1.96320000      -1.31830000      -1.07400000
N       -1.00040000      -2.14410000      -1.81500000
C       -0.67090000      -2.89140000      -0.64270000
N        0.04400000      -3.90230000      -0.39790000
C       -1.63490000      -2.11310000       0.20860000
O       -2.39110000      -2.60520000       1.23950000
H        0.82880000       1.63280000      -0.52180000
H        0.77200000      -0.73860000      -0.28300000
H        0.33590000       0.17280000       1.16740000
H       -2.07840000      -0.06370000       0.68260000
H       -2.91690000      -1.05280000      -1.50980000
H       -0.25180000      -1.68160000      -2.32320000
H        0.54630000      -4.21380000      -1.23190000
H       -2.58960000      -3.52900000       1.04510000
