12
Properties=species:S:1:pos:R:3 gdb_24819=T pbc="F F F"
N       -0.05750000       1.30270000      -0.18550000
C       -0.00990000       0.04490000      -0.01130000
N        1.19690000      -0.67080000       0.19070000
C        1.16470000      -1.92400000       0.35720000
O        0.05780000      -2.72670000       0.36900000
C       -1.13200000      -2.10780000       0.18160000
C       -1.23420000      -0.77840000      -0.00700000
C       -2.51790000      -0.19030000      -0.19850000
N       -3.57390000       0.25700000      -0.35110000
H        0.88940000       1.68550000      -0.15460000
H        2.05880000      -2.51830000       0.51550000
H       -1.96450000      -2.79810000       0.20220000
