20
Properties=species:S:1:pos:R:3 gdb_116090=T pbc="F F F"
C        0.08200000       1.53030000      -0.08900000
C        0.01330000       0.01070000       0.05750000
N       -1.35050000      -0.51370000       0.00530000
C       -1.39660000      -1.96030000      -0.11850000
C       -2.82440000      -2.36890000      -0.42140000
O       -3.75830000      -1.90420000       0.56700000
C       -3.52830000      -0.76360000       1.25180000
O       -4.37600000      -0.32550000       1.98020000
C       -2.15700000      -0.10210000       1.14500000
H        1.12560000       1.84910000      -0.16510000
H       -0.44610000       1.85220000      -0.99130000
H       -0.35480000       2.05050000       0.76810000
H        0.56560000      -0.45190000      -0.76820000
H        0.52420000      -0.29710000       0.99160000
H       -0.75910000      -2.27630000      -0.95080000
H       -1.03530000      -2.47880000       0.79210000
H       -3.12770000      -1.96350000      -1.39300000
H       -2.93340000      -3.45620000      -0.44090000
H       -1.65300000      -0.31800000       2.11030000
H       -2.34090000       0.97340000       1.12420000
