18
Properties=species:S:1:pos:R:3 gdb_72630=T pbc="F F F"
N       -0.08000000       1.49250000       0.12030000
C       -0.04090000       0.07690000       0.07930000
C        0.76060000      -0.81080000       1.03820000
C       -0.44380000      -1.81470000       1.07970000
C       -1.20490000      -0.89220000       0.10810000
N       -2.58460000      -0.56520000       0.06260000
C       -0.37350000      -0.78790000      -1.16990000
C       -0.93310000      -0.09690000      -2.29140000
N       -1.34740000       0.46700000      -3.21390000
H        0.62650000       1.91110000      -0.47790000
H       -0.98410000       1.82570000      -0.20260000
H        1.71170000      -1.19870000       0.66290000
H        0.92700000      -0.31590000       1.99650000
H       -0.26150000      -2.83980000       0.74110000
H       -0.91300000      -1.84780000       2.06650000
H       -3.12930000      -1.25780000      -0.44080000
H       -2.97370000      -0.47050000       0.99460000
H        0.27430000      -1.61930000      -1.44010000
