20
Properties=species:S:1:pos:R:3 gdb_70538=T pbc="F F F"
C        0.06510000       1.34660000      -0.23280000
C       -0.08270000      -0.11110000       0.12170000
C       -0.84530000      -0.55480000       1.33900000
C        0.65790000      -0.74490000       1.26840000
C        1.27890000      -2.10520000       0.98540000
C        1.80020000      -2.10480000      -0.46040000
C        0.68100000      -1.81880000      -1.42980000
N        0.58710000      -2.41940000      -2.54040000
O       -0.27130000      -0.91460000      -1.03580000
H        0.96030000       1.51410000      -0.84140000
H       -0.80270000       1.69330000      -0.80310000
H        0.14680000       1.95610000       0.67170000
H       -1.24320000       0.20490000       2.00310000
H       -1.46490000      -1.43910000       1.23260000
H        1.26080000      -0.06870000       1.86730000
H        2.09400000      -2.31030000       1.68470000
H        0.54490000      -2.90820000       1.11250000
H        2.57180000      -1.33040000      -0.56180000
H        2.24990000      -3.05420000      -0.75410000
H       -0.23650000      -2.08620000      -3.04710000
