16
Properties=species:S:1:pos:R:3 gdb_16919=T pbc="F F F"
O        0.01810000       0.02590000       0.09480000
C       -0.00560000       1.22560000       0.04180000
C       -1.25330000       2.13760000       0.01990000
C       -0.60700000       3.55270000       0.03090000
C        0.60780000       3.31410000      -0.90380000
C        1.20680000       2.18910000      -0.02520000
C        1.17380000       2.86600000       1.34400000
C        0.11130000       3.67690000       1.37320000
H       -1.81370000       1.94210000      -0.90130000
H       -1.91480000       1.93570000       0.86450000
H       -1.28080000       4.36630000      -0.23720000
H        0.32190000       2.98360000      -1.90840000
H        1.27010000       4.18020000      -0.97270000
H        2.13590000       1.70970000      -0.32560000
H        1.84350000       2.61750000       2.15650000
H       -0.25720000       4.24490000       2.21780000
