14
Properties=species:S:1:pos:R:3 gdb_19677=T pbc="F F F"
N        0.03930000      -1.18610000      -0.08970000
C        0.05570000      -0.03330000      -0.00930000
C        0.03220000       1.42380000       0.06630000
C       -0.15190000       2.13670000       1.41020000
C        1.24750000       2.29230000       2.00840000
N        2.16760000       1.56980000       1.10210000
C        1.38170000       2.20300000      -0.00800000
C        0.76300000       3.27500000       0.98220000
H       -0.67670000       1.81640000      -0.66740000
H       -1.04900000       2.18300000       2.01230000
H        1.41250000       2.39320000       3.07280000
H        3.06820000       2.04550000       1.14310000
H        1.88330000       2.36410000      -0.95870000
H        0.61080000       4.34510000       0.95330000
