20
Properties=species:S:1:pos:R:3 gdb_59807=T pbc="F F F"
C       -0.04330000       1.52710000      -0.00380000
C        0.00100000      -0.00630000       0.00190000
C        0.72580000      -0.53660000       1.24560000
N       -1.37090000      -0.50960000       0.01520000
C       -1.79580000      -1.23700000      -0.92530000
O       -1.06670000      -1.63520000      -2.03230000
C       -1.88290000      -2.44900000      -2.87460000
C       -3.21000000      -2.52070000      -2.17560000
C       -3.14060000      -1.81300000      -1.04880000
H        0.96950000       1.94280000       0.02140000
H       -0.54480000       1.89970000      -0.90200000
H       -0.59340000       1.89500000       0.86830000
H        0.54590000      -0.34310000      -0.88990000
H        0.19810000      -0.22840000       2.15380000
H        0.77060000      -1.62970000       1.23470000
H        1.75010000      -0.15150000       1.28920000
H       -1.94890000      -1.98790000      -3.86990000
H       -1.41000000      -3.43370000      -2.99520000
H       -4.05600000      -3.07120000      -2.56420000
H       -3.90500000      -1.64750000      -0.30450000
