16
Properties=species:S:1:pos:R:3 gdb_33349=T pbc="F F F"
N       -0.37070000      -3.79450000      -0.63500000
C       -0.25080000      -2.65630000      -0.43350000
C       -0.10990000      -1.31990000      -0.19670000
C        0.01500000      -0.13540000       0.01320000
C        0.17060000       1.28170000       0.27330000
C       -0.39950000       1.74890000       1.65290000
C        0.53710000       2.87040000       2.03020000
C        1.63730000       2.88710000       1.28150000
C        1.65310000       1.78000000       0.25610000
H       -0.36930000       1.83070000      -0.50780000
H       -1.44670000       2.05570000       1.56980000
H       -0.36610000       0.93870000       2.39270000
H        0.32690000       3.54350000       2.85350000
H        2.46620000       3.57590000       1.39760000
H        2.34580000       0.97980000       0.54730000
H        1.95350000       2.10720000      -0.74410000
