20
Properties=species:S:1:pos:R:3 gdb_86563=T pbc="F F F"
C        0.35450000       1.76870000       0.18250000
C        0.12290000       0.30200000      -0.11440000
C        1.14550000      -0.44830000      -1.00400000
C        1.66000000      -1.16880000       0.25630000
N        0.50340000      -0.59980000       1.08910000
H        0.82400000      -0.05230000       1.88570000
C       -0.52860000      -1.58170000       1.52570000
C        0.40860000      -1.44560000      -1.99130000
O        0.63660000      -1.28970000      -3.18820000
O       -0.33680000      -2.25440000      -1.37460000
H        1.38820000       1.96680000       0.48740000
H        0.16760000       2.34110000      -0.73040000
H       -0.32440000       2.14380000       0.95730000
H       -0.91470000       0.09060000      -0.37520000
H        1.86490000       0.19030000      -1.51500000
H        1.58940000      -2.25450000       0.21820000
H        2.61050000      -0.83670000       0.67800000
H       -0.09010000      -2.23560000       2.28280000
H       -1.37390000      -1.03340000       1.94780000
H       -0.80500000      -2.13370000       0.61940000
