17
Properties=species:S:1:pos:R:3 gdb_9613=T pbc="F F F"
C        0.23950000       1.38690000       0.31590000
C       -0.33320000       0.08750000      -0.26550000
C        0.52110000      -0.48310000      -1.38320000
C        0.57090000       0.29150000      -2.68260000
O        1.78420000      -1.02430000      -0.96130000
C        0.80180000      -1.94170000      -1.44420000
C        0.24850000      -2.87370000      -0.48510000
N       -0.20600000      -3.63470000       0.25700000
H        1.25840000       1.22700000       0.68050000
H        0.26460000       2.19320000      -0.42340000
H       -0.37170000       1.72850000       1.15560000
H       -0.42260000      -0.65770000       0.53000000
H       -1.34450000       0.25890000      -0.65380000
H        0.95040000       1.30300000      -2.51160000
H        1.22970000      -0.19850000      -3.40330000
H       -0.42960000       0.37500000      -3.11870000
H        1.02480000      -2.39200000      -2.41050000
