15
Properties=species:S:1:pos:R:3 gdb_133569=T pbc="F F F"
F       -0.47800000       0.39920000      -0.76420000
C        0.02460000       1.39320000      -0.01540000
F        1.27610000       1.04150000       0.31650000
F        0.10810000       2.47800000      -0.80340000
C       -0.77480000       1.73710000       1.21920000
C       -2.21620000       1.53030000       1.45570000
C       -2.77010000       0.21550000       0.90990000
C       -1.63240000      -0.48410000       1.69440000
N       -1.15670000       0.81980000       2.30200000
H       -0.37410000       2.65930000       1.63500000
H       -2.81910000       2.33620000       1.86320000
H       -3.75450000      -0.00750000       1.32430000
H       -2.80460000       0.09980000      -0.17330000
H       -1.98840000      -1.12550000       2.50160000
H       -0.87390000      -1.01990000       1.12210000
