17
Properties=species:S:1:pos:R:3 gdb_28444=T pbc="F F F"
C       -0.02200000       1.51870000       0.06430000
C        0.01610000       0.01150000       0.01360000
C       -0.05190000      -0.69110000      -1.19120000
C       -0.01770000      -2.07800000      -1.24800000
C        0.08870000      -2.80120000      -0.05930000
O        0.12000000      -4.16180000      -0.14640000
C        0.15870000      -2.13390000       1.16080000
C        0.12240000      -0.74120000       1.19250000
O        0.19550000      -0.15640000       2.42360000
H        0.88560000       1.94570000       0.51370000
H       -0.10450000       1.93690000      -0.94170000
H       -0.87940000       1.89700000       0.63850000
H       -0.13460000      -0.12750000      -2.11620000
H       -0.07130000      -2.61030000      -2.18960000
H        0.19460000      -4.53080000       0.73950000
H        0.24180000      -2.67470000       2.09870000
H        0.16140000       0.79970000       2.32130000
