16
Properties=species:S:1:pos:R:3 gdb_129951=T pbc="F F F"
N       -0.03030000       1.46360000      -0.04540000
C       -0.01280000       0.06390000      -0.01400000
C       -1.03940000      -0.82950000       0.00300000
O       -0.56500000      -2.08790000       0.13330000
N        0.81150000      -2.03950000       0.19070000
C        1.14460000      -0.77020000       0.11850000
C        2.56320000      -0.35830000       0.17870000
C        3.42140000      -0.83600000       1.30490000
N        3.62070000      -1.35390000      -0.05070000
H        0.71510000       1.85390000      -0.60850000
H       -0.91430000       1.83950000      -0.36260000
H       -2.11140000      -0.73060000      -0.05830000
H        2.77540000       0.62030000      -0.24590000
H        4.21810000      -0.19870000       1.67890000
H        2.94400000      -1.47310000       2.04340000
H        3.18130000      -2.26920000      -0.13390000
