17
Properties=species:S:1:pos:R:3 gdb_81412=T pbc="F F F"
O       -0.10240000       1.26730000      -0.42770000
C        0.05620000      -0.06990000      -0.02680000
C       -0.00750000      -0.36500000       1.50570000
C       -1.52760000      -0.10840000       1.41390000
C       -1.31550000      -0.81310000       0.03240000
C       -0.81340000      -2.19380000       0.48950000
O        0.10660000      -1.80040000       1.53230000
C       -1.89140000      -3.11870000       1.03190000
O       -2.74720000      -3.60750000       0.34160000
H        0.72040000       1.73390000      -0.24880000
H        0.86920000      -0.57400000      -0.56640000
H        0.65640000       0.07280000       2.25000000
H       -2.16730000      -0.58450000       2.15950000
H       -1.77140000       0.94470000       1.29260000
H       -2.03740000      -0.78320000      -0.78040000
H       -0.27940000      -2.72600000      -0.30880000
H       -1.82130000      -3.30930000       2.12590000
