23
Properties=species:S:1:pos:R:3 gdb_60477=T pbc="F F F"
C        0.04950000       1.47010000       0.17700000
C       -0.03400000      -0.04880000      -0.00470000
C       -1.47110000      -0.52460000      -0.18800000
O        0.68230000      -0.48950000      -1.15390000
C        2.08650000      -0.49040000      -1.03180000
C        2.66940000      -1.15780000      -2.27170000
C        4.20930000      -1.19770000      -2.23460000
C        4.78970000      -1.82530000      -3.41530000
C        5.24660000      -2.34590000      -4.39750000
H        1.07890000       1.80740000       0.32740000
H       -0.35320000       1.97800000      -0.70540000
H       -0.53130000       1.78210000       1.05090000
H        0.39530000      -0.53750000       0.88730000
H       -1.91250000      -0.06170000      -1.07640000
H       -1.49980000      -1.60950000      -0.31850000
H       -2.08150000      -0.25870000       0.68010000
H        2.48470000       0.53350000      -0.93740000
H        2.39230000      -1.03770000      -0.12230000
H        2.27370000      -2.17480000      -2.35350000
H        2.33580000      -0.61450000      -3.16140000
H        4.60190000      -0.17660000      -2.13710000
H        4.54250000      -1.73580000      -1.33700000
H        5.65990000      -2.80400000      -5.26140000
