23
Properties=species:S:1:pos:R:3 gdb_123266=T pbc="F F F"
C       -0.45010000       1.53160000      -1.26240000
O       -0.63640000       0.15220000      -1.05850000
C       -0.37370000      -0.24660000       0.26640000
C       -0.60980000      -1.74660000       0.35150000
O       -0.34770000      -2.14740000       1.67690000
C       -0.53220000      -3.52840000       1.88890000
C       -0.21690000      -3.81870000       3.34810000
O       -0.40160000      -5.19890000       3.55820000
C       -0.13800000      -5.59140000       4.88320000
H       -0.67680000       1.74160000      -2.31050000
H       -1.11900000       2.13300000      -0.62630000
H        0.58700000       1.83940000      -1.05400000
H        0.66540000      -0.01730000       0.55420000
H       -1.03430000       0.27440000       0.97880000
H       -1.64850000      -1.97570000       0.06440000
H        0.05110000      -2.26720000      -0.35990000
H       -1.56800000      -3.83050000       1.66600000
H        0.13110000      -4.12280000       1.24060000
H        0.81910000      -3.51570000       3.57170000
H       -0.88030000      -3.22350000       3.99690000
H       -0.30690000      -6.66920000       4.94550000
H        0.90270000      -5.37690000       5.17390000
H       -0.80400000      -5.08490000       5.59990000
