17
Properties=species:S:1:pos:R:3 gdb_126969=T pbc="F F F"
C        0.05570000       1.51040000       0.01620000
C       -0.11190000      -0.00000000      -0.10710000
N        0.72750000      -0.52250000      -1.17590000
C        0.84650000      -1.86520000      -1.36980000
N        0.45830000      -2.75940000      -0.48360000
O        0.85120000      -3.98910000      -1.11430000
C        1.39180000      -3.64340000      -2.28070000
N        1.89020000      -4.63830000      -3.06170000
N        1.42320000      -2.36210000      -2.51960000
H        1.09650000       1.77290000       0.22680000
H       -0.24380000       2.01890000      -0.90780000
H       -0.57070000       1.89800000       0.82410000
H        0.18860000      -0.49700000       0.82050000
H       -1.17030000      -0.25660000      -0.26790000
H        0.77040000       0.01430000      -2.02900000
H        1.51500000      -5.56020000      -2.90530000
H        2.04710000      -4.38720000      -4.02440000
