14
Properties=species:S:1:pos:R:3 gdb_13480=T pbc="F F F"
N       -0.06100000       1.32890000       0.01590000
C        0.09000000      -0.01990000       0.00300000
O        1.13750000      -0.62990000      -0.01290000
N       -1.14540000      -0.69460000       0.01280000
C       -1.44700000      -2.13200000       0.01070000
C       -2.95760000      -1.74230000       0.02350000
C       -2.46860000      -0.28390000       0.02330000
O       -2.95310000       0.81980000       0.02880000
H        0.76860000       1.89480000      -0.00610000
H       -0.98120000       1.74570000       0.01460000
H       -1.09770000      -2.64570000      -0.88710000
H       -1.08390000      -2.65130000       0.89980000
H       -3.52690000      -2.02250000      -0.86430000
H       -3.51280000      -2.02680000       0.91870000
