20
Properties=species:S:1:pos:R:3 gdb_89784=T pbc="F F F"
C        0.15600000       1.59770000       0.06240000
C        0.04950000       0.08130000       0.12570000
C        0.82760000      -0.74660000      -0.94670000
C        1.30720000      -1.68150000       0.16640000
C        1.29520000      -3.15930000       0.16230000
N        2.56850000      -2.41410000       0.25130000
C        0.79920000      -0.72360000       1.25320000
C        1.87300000      -0.01540000       2.05310000
O        1.72490000       1.05490000       2.59060000
H        1.19720000       1.92870000       0.01050000
H       -0.36120000       1.97000000      -0.82920000
H       -0.28950000       2.06760000       0.94270000
H       -1.00480000      -0.21000000       0.13090000
H        0.24180000      -1.19180000      -1.75520000
H        1.64840000      -0.16710000      -1.38600000
H        1.02700000      -3.71070000       1.06030000
H        1.05000000      -3.66390000      -0.76930000
H        3.03930000      -2.40990000      -0.65060000
H        0.12950000      -1.18420000       1.99060000
H        2.82690000      -0.57840000       2.13720000
