19
Properties=species:S:1:pos:R:3 gdb_41698=T pbc="F F F"
C        0.04680000       1.58920000       0.03260000
O        1.44350000       1.52940000      -0.33000000
C        1.35400000       0.10020000      -0.58680000
C        2.47140000      -0.72360000       0.06530000
C        2.03530000      -1.18540000       1.45720000
C        1.35470000      -0.05910000       2.25770000
C        0.10760000      -0.56340000       1.49700000
O        0.74750000      -1.86210000       1.32180000
C       -0.03580000       0.05320000       0.10760000
H       -0.11550000       2.15000000       0.96080000
H       -0.56090000       2.03470000      -0.76590000
H        1.31240000      -0.07880000      -1.66870000
H        2.68630000      -1.60780000      -0.54430000
H        3.38350000      -0.11700000       0.10980000
H        2.77850000      -1.81630000       1.95150000
H        1.29330000      -0.29140000       3.32190000
H        1.69700000       0.96320000       2.09970000
H       -0.84100000      -0.63660000       2.03650000
H       -0.84340000      -0.43010000      -0.44510000
