12
Properties=species:S:1:pos:R:3 gdb_4955=T pbc="F F F"
O       -0.02610000      -0.04630000       0.00450000
C       -0.01010000       1.16260000       0.01000000
N       -1.16450000       1.92410000       0.02900000
C       -1.21530000       3.31200000       0.03610000
C       -0.07430000       4.01250000       0.02420000
N        1.14020000       3.33900000       0.00480000
C        1.29670000       1.96480000      -0.00370000
O        2.38180000       1.43200000      -0.02050000
H       -2.02050000       1.38700000       0.03790000
H       -2.19270000       3.76910000       0.05140000
H       -0.03950000       5.09100000       0.02870000
H        2.00650000       3.85940000      -0.00430000
