15
Properties=species:S:1:pos:R:3 gdb_21133=T pbc="F F F"
C       -0.00580000       1.42970000       0.00780000
N        0.05240000      -0.01730000       0.00260000
C       -1.05600000      -0.66460000       0.00880000
N       -2.33410000      -0.08340000       0.02030000
N       -3.52730000      -0.70840000       0.02710000
C       -3.50370000      -2.00590000       0.02260000
C       -2.28450000      -2.76590000       0.01100000
C       -1.10160000      -2.11460000       0.00440000
H        1.00970000       1.83360000       0.00110000
H       -0.52490000       1.84360000      -0.87500000
H       -0.51100000       1.83780000       0.90120000
H       -2.41220000       0.92040000       0.02430000
H       -4.47230000      -2.49290000       0.02810000
H       -2.33230000      -3.84940000       0.00780000
H       -0.14410000      -2.62080000      -0.00440000
