22
Properties=species:S:1:pos:R:3 gdb_94627=T pbc="F F F"
C       -0.59180000       1.37310000      -0.11270000
C        0.10630000       0.02090000      -0.10310000
C        1.55670000      -0.09140000      -0.64870000
C        1.87160000      -1.10650000       0.48180000
C        0.59700000      -0.62280000       1.24050000
C        0.87610000       0.35730000       2.37990000
C        1.43430000      -0.36360000       3.62510000
C        1.72520000       0.55420000       4.72400000
N        1.94870000       1.29590000       5.58170000
H        0.00570000       2.14540000       0.38250000
H       -0.76750000       1.70520000      -1.14190000
H       -1.56520000       1.32960000       0.38890000
H       -0.52630000      -0.71140000      -0.61740000
H        1.68260000      -0.42720000      -1.68080000
H        2.10960000       0.84530000      -0.52520000
H        1.78270000      -2.14290000       0.14600000
H        2.83070000      -0.99590000       0.99650000
H       -0.05000000      -1.42320000       1.61750000
H        1.59190000       1.12540000       2.06600000
H       -0.04230000       0.88340000       2.66210000
H        0.71640000      -1.11300000       3.97910000
H        2.35330000      -0.90540000       3.37430000
