17
Properties=species:S:1:pos:R:3 gdb_82445=T pbc="F F F"
C       -0.09860000       1.41800000      -0.00550000
C        0.00560000      -0.06670000       0.01400000
O       -1.17250000      -0.87090000      -0.19140000
C       -0.37250000      -1.99610000       0.26410000
C        0.66920000      -1.04510000       0.94150000
C        1.19160000      -0.87900000      -0.50280000
O        2.33190000      -0.27760000      -0.96880000
C        0.61590000      -2.22290000      -0.92050000
O        1.59480000      -3.21650000      -0.68410000
H        0.89070000       1.85990000       0.14050000
H       -0.48400000       1.76040000      -0.97160000
H       -0.76860000       1.77540000       0.78190000
H       -0.93870000      -2.80760000       0.71760000
H        1.11640000      -0.96520000       1.92180000
H        3.05610000      -0.90530000      -0.85270000
H        0.16270000      -2.31730000      -1.91690000
H        1.20750000      -4.07460000      -0.88300000
