19
Properties=species:S:1:pos:R:3 gdb_57986=T pbc="F F F"
C        0.04260000       1.50770000      -0.24110000
C       -0.01260000       0.02860000       0.16730000
O        0.57540000      -0.14790000       1.42730000
C       -1.44090000      -0.52480000       0.18030000
O       -1.86680000      -1.02910000       1.19970000
C       -2.26910000      -0.44120000      -1.08550000
C       -3.54570000      -1.29770000      -1.01680000
C       -4.35270000      -1.18130000      -2.22420000
C       -4.99970000      -1.06850000      -3.23070000
H        1.07580000       1.85420000      -0.16360000
H       -0.29520000       1.65960000      -1.27040000
H       -0.57090000       2.11500000       0.43130000
H        0.53550000      -0.55970000      -0.59150000
H       -0.09100000      -0.61230000       1.95910000
H       -2.53200000       0.61120000      -1.25220000
H       -1.65120000      -0.72620000      -1.94490000
H       -3.27070000      -2.34530000      -0.84800000
H       -4.12830000      -1.00120000      -0.13830000
H       -5.58470000      -0.98010000      -4.11240000
