19
Properties=species:S:1:pos:R:3 gdb_54586=T pbc="F F F"
C        0.02580000       1.47310000       0.02440000
C       -0.13590000      -0.03690000       0.05100000
O       -0.42140000      -0.63910000       1.06220000
C        0.05360000      -0.74770000      -1.26050000
C       -1.17570000      -0.78270000      -2.23450000
C       -1.04580000      -2.33570000      -2.33090000
C        0.20290000      -2.28240000      -1.42660000
O        1.42720000      -2.11100000      -2.17720000
C        1.41110000      -0.68050000      -1.99360000
H        1.05970000       1.73620000      -0.22880000
H       -0.61210000       1.91620000      -0.74870000
H       -0.22560000       1.89160000       0.99960000
H       -2.10660000      -0.45130000      -1.76890000
H       -1.03340000      -0.22430000      -3.16340000
H       -1.88790000      -2.86310000      -1.87590000
H       -0.85590000      -2.74850000      -3.32340000
H        0.30710000      -2.99090000      -0.60310000
H        1.43040000      -0.13050000      -2.94340000
H        2.25320000      -0.34860000      -1.37060000
