21
Properties=species:S:1:pos:R:3 gdb_104539=T pbc="F F F"
C        0.71660000      -5.22870000       3.78260000
C        0.47230000      -4.59010000       2.49620000
C        0.28560000      -4.07780000       1.42150000
C        0.03270000      -3.42430000       0.13770000
C       -1.45230000      -3.27880000      -0.19900000
C       -2.29510000      -2.66820000       0.90830000
O       -1.75400000      -1.45680000       1.41830000
C       -1.79670000      -2.96500000      -1.63170000
C       -2.11210000      -4.32710000      -1.05720000
H        1.30260000      -4.58300000       4.44590000
H       -0.22220000      -5.46510000       4.29560000
H        1.27050000      -6.16610000       3.66050000
H        0.48390000      -2.42350000       0.15020000
H        0.53540000      -3.97460000      -0.66710000
H       -3.29060000      -2.42650000       0.51960000
H       -2.42510000      -3.40390000       1.71460000
H       -1.05510000      -1.69860000       2.03470000
H       -2.61880000      -2.28300000      -1.82090000
H       -0.98640000      -2.89060000      -2.35000000
H       -1.51670000      -5.17390000      -1.38220000
H       -3.15140000      -4.57010000      -0.85850000
