19
Properties=species:S:1:pos:R:3 gdb_62497=T pbc="F F F"
C       -0.07460000       1.55490000      -0.04850000
C       -0.00470000       0.04490000       0.03910000
N       -1.18770000      -0.58520000      -0.46080000
C        1.38990000      -0.64550000      -0.19440000
C        2.57890000       0.10950000      -0.42520000
N        3.53530000       0.74090000      -0.60130000
C        0.68580000      -0.63430000       1.17980000
C        1.28270000       0.11500000       2.34740000
O        0.09040000      -1.85190000       1.53670000
H        0.86420000       2.03950000       0.22230000
H       -0.30910000       1.85010000      -1.07700000
H       -0.87470000       1.92880000       0.59630000
H       -1.25740000      -0.50000000      -1.46900000
H       -1.22030000      -1.56390000      -0.20200000
H        1.33620000      -1.59590000      -0.71480000
H        1.77870000       1.03680000       2.04130000
H        0.50210000       0.35560000       3.07500000
H        2.03490000      -0.50830000       2.84560000
H        0.76700000      -2.41470000       1.92950000
