13
Properties=species:S:1:pos:R:3 gdb_131763=T pbc="F F F"
O        0.12520000       1.34640000      -0.35430000
C        0.02580000       0.00940000       0.10490000
C       -1.38100000      -0.50420000       0.02100000
N       -2.10240000      -0.75910000       1.07590000
O       -3.32580000      -1.16030000       0.61170000
N       -3.37380000      -1.15350000      -0.74830000
C       -2.18660000      -0.75020000      -1.14280000
C       -1.82120000      -0.61290000      -2.50030000
C       -1.47410000      -0.49210000      -3.64470000
H       -0.37880000       1.90400000       0.24850000
H        0.67180000      -0.58020000      -0.55210000
H        0.38380000      -0.11130000       1.13510000
H       -1.17530000      -0.38200000      -4.65840000
