22
Properties=species:S:1:pos:R:3 gdb_83742=T pbc="F F F"
C       -0.01220000       1.63210000      -0.41090000
N        0.05810000       0.22420000      -0.06090000
C        1.26520000      -0.57890000      -0.18240000
C        2.63650000       0.08420000      -0.27470000
C        2.78580000       0.97690000       0.98790000
C        1.64860000       0.56810000       1.93710000
C        1.93080000       0.20010000       3.37490000
C        1.18760000       1.47240000       3.05460000
C        0.67210000      -0.27910000       1.16060000
H        0.86940000       2.23780000      -0.16240000
H       -0.18470000       1.71420000      -1.48920000
H       -0.87470000       2.07520000       0.09750000
H        1.13320000      -1.53420000      -0.68610000
H        3.39710000      -0.70370000      -0.28860000
H        2.76270000       0.65650000      -1.20050000
H        3.76550000       0.84190000       1.45730000
H        2.71370000       2.03740000       0.72640000
H        1.37460000      -0.62190000       3.81480000
H        2.95550000       0.28030000       3.72320000
H        1.70710000       2.41590000       3.19010000
H        0.12640000       1.51420000       3.27720000
H        0.06940000      -0.99220000       1.72050000
