18
Properties=species:S:1:pos:R:3 gdb_59626=T pbc="F F F"
C        0.08530000       1.57010000      -0.17680000
C        0.04310000       0.05190000       0.01050000
O        0.83570000      -0.36310000       1.10810000
C       -1.39520000      -0.48150000       0.15370000
C       -1.45230000      -2.02030000       0.29210000
O       -2.43330000      -2.28480000       1.30430000
C       -2.74100000      -1.13870000       1.96970000
O       -3.52110000      -1.07730000       2.87610000
N       -1.99460000      -0.09840000       1.42580000
H        1.12120000       1.90270000      -0.27550000
H       -0.46670000       1.87780000      -1.07150000
H       -0.34880000       2.08490000       0.68830000
H        0.48800000      -0.42770000      -0.87110000
H        0.34720000      -0.12140000       1.90650000
H       -1.99760000      -0.13750000      -0.69880000
H       -1.75970000      -2.52070000      -0.62780000
H       -0.48560000      -2.40890000       0.62420000
H       -2.38570000       0.82150000       1.55750000
