21
Properties=species:S:1:pos:R:3 gdb_30705=T pbc="F F F"
C        0.04420000       1.54970000       0.09540000
C       -0.01960000       0.02170000       0.01730000
C       -1.45050000      -0.54230000      -0.06840000
C       -2.19770000      -0.13390000      -1.34330000
N       -1.43490000      -2.00140000       0.08030000
C       -1.91530000      -2.71630000       1.15710000
C       -1.66530000      -4.03350000       0.87500000
N       -1.04270000      -4.15440000      -0.34380000
C       -0.92030000      -2.92210000      -0.78770000
H        1.07590000       1.88320000       0.24000000
H       -0.32870000       2.02540000      -0.81650000
H       -0.54690000       1.92980000       0.93650000
H        0.55580000      -0.33250000      -0.84690000
H        0.45720000      -0.41170000       0.90350000
H       -2.01450000      -0.17020000       0.79430000
H       -2.32500000       0.95090000      -1.38380000
H       -1.65170000      -0.44150000      -2.24080000
H       -3.18790000      -0.59590000      -1.37180000
H       -2.37920000      -2.22270000       1.99550000
H       -1.90010000      -4.89820000       1.47720000
H       -0.47190000      -2.63730000      -1.72740000
