17
Properties=species:S:1:pos:R:3 gdb_36496=T pbc="F F F"
N       -0.12110000      -1.11200000      -0.15600000
C       -0.06500000       0.04120000      -0.11530000
C       -0.00410000       1.49810000      -0.03650000
C        1.43180000       2.03300000       0.06780000
O        2.12220000       1.66080000      -1.11970000
C        3.03890000       2.68150000      -1.50670000
C        2.52040000       3.95550000      -0.87550000
N        1.08310000       4.17140000      -1.13870000
C        1.51530000       3.54790000       0.12940000
H       -0.46300000       1.93740000      -0.92690000
H       -0.58110000       1.82230000       0.83720000
H        1.92390000       1.60710000       0.95650000
H        4.05360000       2.46900000      -1.13610000
H        3.05980000       2.70700000      -2.60050000
H        3.18070000       4.80320000      -0.72940000
H        0.85440000       5.14800000      -0.96990000
H        1.37790000       4.06330000       1.07360000
