20
Properties=species:S:1:pos:R:3 gdb_88279=T pbc="F F F"
C       -0.30460000       1.21910000       0.51360000
C        0.18950000      -0.17220000       0.18720000
C        1.46770000      -0.40120000      -0.54980000
C        1.38160000      -0.81940000       0.90700000
C        2.16910000      -0.04720000       1.90710000
O        2.56020000       1.09200000       1.74370000
N        2.49830000      -0.78330000       3.05200000
C        1.52720000      -1.21750000       4.04370000
C        2.55660000      -0.17140000       4.35690000
H        0.52410000       1.88060000       0.77100000
H       -0.83270000       1.64250000      -0.34780000
H       -1.00580000       1.20370000       1.35580000
H       -0.60170000      -0.88770000      -0.02380000
H        1.52420000      -1.18710000      -1.29440000
H        2.09260000       0.46560000      -0.73630000
H        1.29030000      -1.87750000       1.12300000
H        0.49820000      -0.88710000       3.92320000
H        1.64410000      -2.23170000       4.41620000
H        3.41800000      -0.43090000       4.96540000
H        2.23120000       0.86280000       4.42820000
