16
Properties=species:S:1:pos:R:3 gdb_50882=T pbc="F F F"
N       -0.55230000       0.96840000      -0.61080000
C       -0.14300000      -0.15200000      -0.15120000
N       -0.87250000      -0.91370000       0.71060000
C       -2.26550000      -0.59820000       0.98520000
C       -3.21250000      -1.36490000       0.17210000
C       -3.98510000      -2.01490000      -0.47940000
N        1.13590000      -0.69810000      -0.46470000
C        1.66980000      -1.91400000      -0.13370000
O        1.13780000      -2.78070000       0.52880000
H        0.13400000       1.41870000      -1.20890000
H       -0.53190000      -1.85090000       0.88420000
H       -2.46380000      -0.78320000       2.04750000
H       -2.39630000       0.47180000       0.80530000
H       -4.66930000      -2.57950000      -1.06290000
H        1.70970000      -0.10360000      -1.04300000
H        2.68560000      -2.03100000      -0.55400000
