15
Properties=species:S:1:pos:R:3 gdb_43256=T pbc="F F F"
O        0.02730000      -0.00680000       0.00670000
C        0.00910000       1.20270000       0.01070000
C       -1.20960000       2.07440000       0.03080000
C       -0.86230000       3.37000000       0.03110000
C        0.62900000       3.51540000       0.01220000
O        1.24970000       4.55360000       0.00790000
C        1.18340000       2.12740000      -0.00050000
C        2.47750000       1.78010000       0.72320000
C        2.45860000       1.78590000      -0.75960000
H       -2.20930000       1.65780000       0.04250000
H       -1.51960000       4.23080000       0.04320000
H        2.95970000       2.60510000       1.23560000
H        2.48220000       0.82390000       1.23460000
H        2.45020000       0.83390000      -1.27850000
H        2.92760000       2.61510000      -1.27750000
