19
Properties=species:S:1:pos:R:3 gdb_89869=T pbc="F F F"
C       -0.00630000       1.52970000       0.08450000
N       -0.02160000       0.08520000       0.11750000
C       -1.27370000      -0.59700000       0.51500000
C       -0.42400000      -1.58070000       1.31920000
C       -0.79530000      -2.48720000       2.43350000
C       -0.34200000      -3.07910000       1.09910000
C       -1.30480000      -3.71960000       0.24970000
N       -2.09060000      -4.21620000      -0.43990000
C        0.74230000      -0.60150000       1.17960000
H        1.00260000       1.88450000      -0.15050000
H       -0.67820000       1.88840000      -0.70200000
H       -0.31910000       1.99250000       1.04070000
H       -1.92290000       0.01570000       1.16280000
H       -1.86720000      -0.99660000      -0.31400000
H       -0.11190000      -2.59990000       3.26860000
H       -1.84490000      -2.58950000       2.68730000
H        0.65040000      -3.51750000       1.06590000
H        1.71510000      -0.99830000       0.86660000
H        0.88060000       0.00750000       2.08960000
