12
Properties=species:S:1:pos:R:3 gdb_5661=T pbc="F F F"
O       -0.05380000       1.35540000       0.00990000
C        1.25790000       1.77610000      -0.00050000
C        2.14870000       0.73820000      -0.01460000
C        1.31380000      -0.41360000      -0.01280000
C        0.01260000       0.00250000       0.00200000
C       -0.82230000      -1.14930000       0.00390000
C        0.06850000      -2.18720000      -0.01030000
O        1.38020000      -1.76650000      -0.02070000
H        1.39300000       2.84470000       0.00380000
H        3.22300000       0.81870000      -0.02460000
H       -1.89660000      -1.22980000       0.01390000
H       -0.06660000      -3.25580000      -0.01470000
