21
Properties=species:S:1:pos:R:3 gdb_10612=T pbc="F F F"
C       -1.89290000       0.26640000      -0.98420000
C       -1.25040000      -1.06800000      -1.38780000
C        0.11490000      -0.90860000      -2.03830000
C        0.14160000      -0.08680000      -3.32790000
O        0.44610000       1.28850000      -3.11340000
N        1.23640000      -0.66950000      -1.10820000
C        1.19840000      -1.92710000      -1.86910000
C        1.07690000      -3.21420000      -1.08760000
H       -1.22440000       0.82940000      -0.32450000
H       -2.13080000       0.88840000      -1.85590000
H       -2.83340000       0.10480000      -0.44890000
H       -1.15160000      -1.69190000      -0.49630000
H       -1.91510000      -1.60480000      -2.07780000
H        0.93280000      -0.44470000      -3.99360000
H       -0.81330000      -0.20220000      -3.86300000
H       -0.22260000       1.65390000      -2.52580000
H        1.87600000       0.00300000      -1.52630000
H        1.88000000      -2.00230000      -2.71710000
H        0.46170000      -3.08800000      -0.19460000
H        0.64210000      -4.00900000      -1.70380000
H        2.06690000      -3.54910000      -0.75940000
