18
Properties=species:S:1:pos:R:3 gdb_22754=T pbc="F F F"
C       -0.39500000       1.19130000       0.08910000
C        0.08500000      -0.25030000       0.15920000
C        0.96450000      -0.81690000      -1.02710000
C        1.95890000      -1.42570000       0.02810000
C        1.23990000      -0.60510000       1.07540000
N        1.49010000      -0.19840000       2.24720000
O        2.71310000      -0.71740000       2.71330000
C        0.33170000      -1.71330000      -1.96950000
C       -0.20810000      -2.46980000      -2.73330000
H        0.43940000       1.87400000      -0.10030000
H       -1.13210000       1.31590000      -0.71060000
H       -0.86020000       1.48820000       1.03350000
H       -0.75960000      -0.92740000       0.33340000
H        1.44350000       0.01410000      -1.55500000
H        1.82550000      -2.50310000       0.16080000
H        3.02110000      -1.21610000      -0.11260000
H        2.78190000      -0.31910000       3.58760000
H       -0.67950000      -3.13470000      -3.41380000
