19
Properties=species:S:1:pos:R:3 gdb_92140=T pbc="F F F"
O       -0.23240000       1.44070000       0.45310000
C        0.03430000       0.12030000      -0.01340000
C        0.97850000      -0.65500000       0.95140000
C        0.25550000      -1.86290000       1.55130000
C       -0.13640000      -2.84670000       0.43080000
C       -1.35830000      -2.14880000      -0.13890000
C       -1.87080000      -1.30100000       0.99360000
O       -1.00140000      -1.41700000       2.10130000
C       -1.27690000      -0.62650000      -0.21710000
H       -0.73050000       1.34840000       1.27380000
H        0.52760000       0.27350000      -0.97810000
H        1.88600000      -0.98690000       0.43510000
H        1.28960000       0.03430000       1.74140000
H        0.82230000      -2.31970000       2.36500000
H        0.67900000      -2.99080000      -0.28410000
H       -0.41800000      -3.82390000       0.83640000
H       -2.02350000      -2.67690000      -0.81100000
H       -2.90910000      -1.20280000       1.28420000
H       -1.96880000      -0.14280000      -0.89940000
