20
Properties=species:S:1:pos:R:3 gdb_6220=T pbc="F F F"
C        0.64410000       1.50550000       0.01740000
C        0.00140000       0.12420000      -0.00250000
C        0.39490000      -0.74900000      -1.21850000
C        1.41540000      -1.74470000      -0.64690000
C        1.51890000      -3.06960000      -1.39910000
O        2.67230000      -1.05950000      -0.66490000
C        0.89180000      -1.87970000       0.79160000
O        0.43510000      -0.59750000       1.16540000
H        1.72790000       1.41320000      -0.08880000
H        0.25680000       2.12260000      -0.80050000
H        0.42360000       2.01040000       0.96240000
H       -1.09190000       0.22970000       0.04840000
H       -0.47130000      -1.28820000      -1.61180000
H        0.83590000      -0.16690000      -2.03030000
H        1.86780000      -2.89690000      -2.42090000
H        2.23610000      -3.73920000      -0.90880000
H        0.55500000      -3.58610000      -1.44080000
H        3.30140000      -1.57530000      -0.14920000
H        0.08030000      -2.62680000       0.83210000
H        1.67150000      -2.19150000       1.49730000
