18
Properties=species:S:1:pos:R:3 gdb_76586=T pbc="F F F"
C       -0.15840000       1.55180000       0.05940000
C        0.02170000       0.05430000      -0.03910000
C        0.68520000      -0.62470000      -1.20170000
C        1.24190000       0.11900000      -2.39400000
C        1.39560000      -0.60590000       0.16170000
C        2.55920000       0.18700000       0.36280000
C        3.55680000       0.85010000       0.54500000
C        4.67670000       1.60040000       0.74660000
N        5.63080000       2.24300000       0.91650000
H        0.70140000       2.10070000      -0.33000000
H       -1.04420000       1.86820000      -0.50120000
H       -0.29570000       1.85480000       1.10210000
H       -0.78250000      -0.51320000       0.42190000
H        0.28410000      -1.60470000      -1.44690000
H        1.71890000       1.05970000      -2.11210000
H        1.99330000      -0.48790000      -2.90900000
H        0.44490000       0.34470000      -3.11020000
H        1.40140000      -1.54240000       0.71200000
