11
Properties=species:S:1:pos:R:3 gdb_132813=T pbc="F F F"
F        0.02060000       0.02230000       0.00410000
C       -0.01390000       1.35020000       0.01080000
C       -1.21910000       2.04010000       0.03010000
N       -1.28460000       3.37140000       0.03720000
C       -0.14560000       4.06370000       0.02540000
C        1.10140000       3.45260000       0.00600000
F        2.22020000       4.16860000      -0.00550000
C        1.17990000       2.06390000      -0.00170000
F        2.34780000       1.44430000      -0.02010000
H       -2.15020000       1.48120000       0.03980000
H       -0.20480000       5.14810000       0.03130000
