17
Properties=species:S:1:pos:R:3 gdb_80802=T pbc="F F F"
C       -0.08110000       1.58590000       0.01280000
C       -0.03280000       0.07240000      -0.03140000
C        1.23370000      -0.63320000      -0.59060000
O        1.99330000      -0.21360000       0.61020000
C        0.68400000      -0.68680000       1.13530000
C        0.42470000      -0.65460000       2.53970000
C        0.16700000      -0.65060000       3.71470000
C        0.87100000      -1.92210000       0.17170000
O       -0.22110000      -2.65590000      -0.28620000
H        0.88730000       1.99620000       0.30630000
H       -0.35230000       1.99170000      -0.96760000
H       -0.83510000       1.92630000       0.73020000
H       -0.97650000      -0.38390000      -0.33680000
H        1.72620000      -0.52050000      -1.55550000
H       -0.05250000      -0.63950000       4.75400000
H        1.73870000      -2.53120000       0.44430000
H       -0.40110000      -3.36000000       0.34500000
