24
Properties=species:S:1:pos:R:3 gdb_121496=T pbc="F F F"
C       -0.18930000       1.41700000       0.37210000
C       -0.67050000       0.00880000       0.73400000
C       -1.11310000      -0.77480000      -0.50950000
N       -1.59370000      -2.13730000      -0.36260000
C       -1.67290000      -2.67550000       0.77050000
O       -2.16170000      -3.92870000       0.89250000
C       -2.05560000      -4.54550000       2.18620000
C       -3.20230000      -5.54260000       2.28780000
C       -0.68270000      -5.19630000       2.34380000
H        0.12410000       1.97250000       1.26120000
H        0.66350000       1.38000000      -0.31470000
H       -0.98250000       1.99280000      -0.11750000
H        0.13520000      -0.53190000       1.24740000
H       -1.50280000       0.07950000       1.44630000
H       -1.90320000      -0.20780000      -1.02270000
H       -0.27840000      -0.80490000      -1.22450000
H       -1.39510000      -2.21620000       1.72860000
H       -2.18180000      -3.76840000       2.95490000
H       -3.10990000      -6.30800000       1.51150000
H       -3.19380000      -6.03610000       3.26400000
H       -4.16310000      -5.03780000       2.15900000
H        0.11620000      -4.45340000       2.25960000
H       -0.59630000      -5.68130000       3.32120000
H       -0.53050000      -5.95020000       1.56540000
