13
Properties=species:S:1:pos:R:3 gdb_53920=T pbc="F F F"
C       -0.18150000       1.48820000       0.03360000
C       -0.15540000      -0.01320000       0.11590000
O       -0.14230000      -0.66340000       1.11980000
C       -0.11400000      -0.76160000      -1.28810000
O       -0.86260000       0.01110000      -2.19720000
C        1.30780000      -0.83620000      -1.69140000
N        2.41600000      -0.83510000      -2.01780000
C       -0.66300000      -2.12310000      -1.14230000
N       -1.13140000      -3.17630000      -1.08410000
H        0.62840000       1.85120000      -0.60690000
H       -1.11880000       1.81660000      -0.42470000
H       -0.08700000       1.89860000       1.03880000
H       -0.82450000      -0.39870000      -3.07060000
