24
Properties=species:S:1:pos:R:3 gdb_5808=T pbc="F F F"
C        0.23560000       1.20720000      -0.51740000
C        0.12720000      -0.13040000       0.21710000
C        0.46050000       0.00340000       1.70420000
O       -1.21200000      -0.61040000       0.09240000
C       -1.45760000      -1.86370000      -0.56070000
C       -0.78150000      -3.02480000       0.18810000
C       -2.98090000      -2.01340000      -0.48740000
C       -1.00630000      -1.82420000      -2.03070000
H        1.23910000       1.63310000      -0.41360000
H        0.02070000       1.08490000      -1.58250000
H       -0.48630000       1.91980000      -0.10550000
H        0.83180000      -0.83840000      -0.23790000
H        0.40410000      -0.96720000       2.20460000
H        1.46800000       0.40810000       1.84690000
H       -0.25400000       0.67670000       2.18870000
H       -1.10840000      -3.04360000       1.23190000
H       -1.04570000      -3.98270000      -0.27150000
H        0.30980000      -2.94430000       0.17050000
H       -3.46670000      -1.17610000      -0.99570000
H       -3.30510000      -2.94570000      -0.95930000
H       -3.30960000      -2.01580000       0.55550000
H        0.07730000      -1.70240000      -2.12400000
H       -1.27520000      -2.75570000      -2.53930000
H       -1.49210000      -0.99530000      -2.55380000
