11
Properties=species:S:1:pos:R:3 gdb_21496=T pbc="F F F"
N       -0.09360000       1.33060000      -0.00520000
C        0.05840000      -0.01750000      -0.01010000
O        1.12440000      -0.60000000      -0.02210000
C       -1.22010000      -0.78510000       0.00140000
C       -1.43800000      -2.12780000       0.00070000
N       -2.79960000      -2.30570000       0.01420000
N       -3.40100000      -1.20470000       0.02310000
O       -2.39880000      -0.16320000       0.01500000
H        0.73250000       1.90560000      -0.01100000
H       -1.00240000       1.76150000       0.00660000
H       -0.73920000      -2.94500000      -0.00840000
