16
Properties=species:S:1:pos:R:3 gdb_131342=T pbc="F F F"
O       -0.64780000       1.15190000      -0.40290000
C       -0.17890000      -0.09020000      -0.15980000
N        1.11630000      -0.33300000      -0.05560000
N        1.16780000      -1.67560000       0.19790000
C       -0.05930000      -2.24820000       0.24040000
C       -0.98130000      -1.24050000       0.01630000
N       -0.19710000      -3.62730000       0.40600000
C       -0.02300000      -4.20550000       1.74760000
C       -1.36770000      -4.12720000       1.11550000
H        0.12180000       1.73020000      -0.47850000
H        2.05780000      -2.13850000       0.24860000
H       -2.05350000      -1.31860000      -0.02790000
H        0.51820000      -5.14580000       1.77670000
H        0.18460000      -3.51930000       2.56460000
H       -2.06150000      -3.39450000       1.51930000
H       -1.82510000      -5.01240000       0.68500000
