15
Properties=species:S:1:pos:R:3 gdb_17233=T pbc="F F F"
O       -0.56720000       0.65710000       0.62950000
C        0.18850000       0.98010000      -0.25610000
C        1.36900000       1.83140000      -0.04500000
C        1.90480000       2.43200000       1.25030000
C        2.80590000       3.31000000       0.34110000
C        3.68800000       2.25520000      -0.35520000
N        2.47830000       1.74120000      -1.08450000
C        1.80540000       3.02720000      -0.84420000
H        0.03970000       0.65930000      -1.30930000
H        1.12290000       3.00950000       1.74690000
H        2.39910000       1.77450000       1.97180000
H        3.18590000       4.27210000       0.67720000
H        4.37270000       2.67400000      -1.09610000
H        4.20780000       1.51890000       0.26740000
H        1.29440000       3.61450000      -1.59630000
