20
Properties=species:S:1:pos:R:3 gdb_18639=T pbc="F F F"
C       -0.30170000       1.51170000      -0.02170000
C        0.01910000       0.03320000       0.06450000
C        1.32790000      -0.62160000      -0.31190000
C        2.60250000       0.21710000      -0.37850000
C        2.73680000       0.91180000       0.99820000
C        1.81780000       0.13620000       1.98240000
O        1.10490000       0.98100000       2.88260000
C        0.84910000      -0.65600000       1.12710000
H        0.56840000       2.15540000       0.10860000
H       -0.73580000       1.74380000      -1.00110000
H       -1.03040000       1.79330000       0.74470000
H       -0.83780000      -0.57670000      -0.21660000
H        1.28800000      -1.51030000      -0.93340000
H        3.45280000      -0.45090000      -0.55410000
H        2.59730000       0.93840000      -1.20360000
H        3.77510000       0.93070000       1.34370000
H        2.39860000       1.95040000       0.96290000
H        2.42140000      -0.58290000       2.55870000
H        1.74720000       1.40980000       3.45710000
H        0.44210000      -1.56100000       1.56510000
