11
Properties=species:S:1:pos:R:3 gdb_21969=T pbc="F F F"
O       -0.03970000       0.01730000       0.00480000
N       -0.04430000       1.24590000       0.00810000
O        0.93970000       1.97260000       0.00320000
C       -1.33510000       1.86190000       0.01880000
C       -2.58100000       1.31030000       0.02650000
C       -3.47560000       2.41890000       0.03560000
C       -2.69330000       3.53740000       0.03270000
O       -1.38030000       3.20980000       0.02250000
H       -2.80670000       0.25750000       0.02550000
H       -4.55340000       2.38950000       0.04330000
H       -2.90760000       4.59340000       0.03680000
