19
Properties=species:S:1:pos:R:3 gdb_81712=T pbc="F F F"
O        0.04090000       1.34020000       0.04330000
C        0.03020000      -0.07300000      -0.00430000
C       -1.44200000      -0.56730000      -0.00500000
C       -1.39310000      -0.53760000      -1.56100000
C        0.15200000      -0.63580000      -1.46260000
O        0.70130000      -1.94160000      -1.51790000
C       -0.06680000      -2.98520000      -0.96950000
O       -0.42460000      -2.79650000       0.37250000
C       -1.56860000      -1.97190000       0.59010000
H        0.94580000       1.63390000      -0.10520000
H        0.70790000      -0.52420000       0.72950000
H       -2.15940000       0.10480000       0.47250000
H       -1.93440000      -1.30040000      -2.12540000
H       -1.67520000       0.44690000      -1.93740000
H        0.74330000      -0.03360000      -2.15760000
H       -0.96890000      -3.17040000      -1.57580000
H        0.58380000      -3.86200000      -1.00290000
H       -1.66580000      -1.91290000       1.67810000
H       -2.46980000      -2.46790000       0.19510000
