20
Properties=species:S:1:pos:R:3 gdb_38273=T pbc="F F F"
C       -0.00880000       1.58750000       0.15120000
N        1.48210000       1.23850000       0.06350000
C        1.11640000       0.04850000       0.99130000
C       -0.01280000       0.04280000      -0.05080000
O       -1.07270000      -0.81330000      -0.28220000
C       -1.60720000      -0.53450000      -1.58780000
C       -0.54680000      -0.46680000      -2.70780000
C        0.54400000       0.60990000      -2.45880000
C        1.08860000       0.25930000      -1.08190000
H       -0.30360000       1.96960000       1.13130000
H       -0.35990000       2.24690000      -0.64150000
H        1.84370000      -0.76650000       0.96370000
H        0.89010000       0.36190000       2.01290000
H       -2.32050000      -1.33650000      -1.79160000
H       -2.16680000       0.41340000      -1.55380000
H       -0.06940000      -1.45080000      -2.79600000
H       -1.06640000      -0.27880000      -3.65390000
H        1.31360000       0.57070000      -3.23560000
H        0.09930000       1.60780000      -2.50240000
H        1.82480000      -0.54810000      -1.15720000
