13
Properties=species:S:1:pos:R:3 gdb_123712=T pbc="F F F"
C        0.00470000       1.47780000       0.10140000
C        1.29170000       0.72740000       0.02580000
O        1.99390000       0.47360000       1.25680000
C        1.19870000      -0.35120000       1.95900000
N        1.29080000      -0.90530000       3.12420000
O        0.12880000      -1.68440000       3.18130000
N       -0.64950000      -1.56220000       2.03770000
C        0.00840000      -0.73440000       1.28990000
C       -0.03320000      -0.04860000      -0.01230000
H       -0.28260000       1.93100000       1.04350000
H       -0.28860000       2.03140000      -0.78340000
H        1.97360000       0.81910000      -0.80840000
H       -0.41600000      -0.52300000      -0.90560000
