16
Properties=species:S:1:pos:R:3 gdb_22470=T pbc="F F F"
C        0.16540000       1.51950000      -0.01140000
C        0.05160000       0.06920000      -0.04930000
C       -0.05460000      -1.12850000      -0.07920000
C       -0.13960000      -2.58120000      -0.12060000
C       -1.53840000      -3.16300000       0.02020000
N       -2.52910000      -2.35940000       0.16270000
O       -3.74040000      -3.02520000       0.27890000
C       -1.64470000      -4.58320000      -0.01760000
C       -1.66370000      -5.78630000      -0.05780000
H        0.80200000       1.84890000       0.81730000
H        0.59940000       1.91080000      -0.93830000
H       -0.81630000       1.98830000       0.11840000
H        0.28460000      -2.96000000      -1.06100000
H        0.48410000      -3.02100000       0.67010000
H       -4.36480000      -2.29750000       0.37660000
H       -1.70700000      -6.84720000      -0.09020000
