20
Properties=species:S:1:pos:R:3 gdb_41099=T pbc="F F F"
C       -0.00360000       1.42710000       0.09950000
C        1.53710000       1.50330000      -0.02710000
C        2.02170000       1.36270000      -1.50900000
C        1.61910000      -0.14060000      -1.46160000
C        2.65610000      -1.29190000      -1.30140000
C        2.43000000      -1.24040000       0.26240000
C        1.46560000      -0.05460000       0.05120000
N       -0.06310000      -0.07430000      -0.03320000
C        0.09890000      -0.43340000      -1.50030000
H       -0.34140000       1.70700000       1.10210000
H       -0.60230000       1.97040000      -0.64060000
H        2.06600000       2.17760000       0.64850000
H        1.54420000       2.00450000      -2.25740000
H        3.10640000       1.48390000      -1.59390000
H        2.39010000      -2.23830000      -1.78030000
H        3.66970000      -1.02510000      -1.61300000
H        1.93630000      -2.12150000       0.68040000
H        3.31750000      -1.02970000       0.86480000
H       -0.52730000       0.15470000      -2.18150000
H       -0.13110000      -1.49330000      -1.64980000
