18
Properties=species:S:1:pos:R:3 gdb_64080=T pbc="F F F"
C        0.04970000       1.57320000      -0.00760000
C       -0.04060000       0.04260000       0.00950000
O       -1.41710000      -0.36070000      -0.00770000
C        0.58250000      -0.53970000      -1.26590000
N        0.83230000      -1.96490000      -1.14920000
C        1.31500000      -2.56510000      -0.01960000
O        1.71490000      -3.71750000       0.00250000
C        1.27060000      -1.71450000       1.20100000
C        0.65160000      -0.53410000       1.22850000
H        1.08860000       1.91740000       0.00230000
H       -0.44710000       1.97010000      -0.89750000
H       -0.45230000       1.98840000       0.87290000
H       -1.77790000      -0.24270000       0.87760000
H       -0.11490000      -0.36910000      -2.09090000
H        1.50930000       0.01000000      -1.48740000
H        0.90500000      -2.51900000      -1.98880000
H        1.73230000      -2.15540000       2.07740000
H        0.58980000       0.04120000       2.15110000
