22
Properties=species:S:1:pos:R:3 gdb_107060=T pbc="F F F"
C        0.35560000       1.45250000       0.26700000
C       -0.15120000       0.06280000      -0.13780000
C        0.52210000      -0.47480000      -1.38080000
C        0.26480000       0.19970000      -2.72910000
C        0.76870000      -0.80810000      -3.78310000
C        0.64620000      -2.20110000      -3.11560000
O        1.65020000      -3.12120000      -3.52290000
C        0.76160000      -1.92530000      -1.63020000
N        1.85900000      -1.05740000      -1.17620000
H        1.43670000       1.42940000       0.43560000
H        0.15000000       2.20020000      -0.50650000
H       -0.12480000       1.79190000       1.18960000
H        0.02890000      -0.64060000       0.68180000
H       -1.23690000       0.09260000      -0.30140000
H       -0.81310000       0.37140000      -2.83850000
H        0.75120000       1.17750000      -2.81810000
H        0.21560000      -0.74490000      -4.72430000
H        1.82300000      -0.63770000      -4.02520000
H       -0.35390000      -2.62400000      -3.30680000
H        1.52440000      -3.30510000      -4.45910000
H        0.46370000      -2.70320000      -0.93310000
H        2.49880000      -0.85060000      -1.93910000
