25
Properties=species:S:1:pos:R:3 gdb_101610=T pbc="F F F"
C       -1.02840000       0.98910000      -0.64650000
C       -0.21270000      -0.08130000       0.07570000
C       -1.10340000      -1.12850000       0.76030000
O       -1.81430000      -1.89190000      -0.19380000
O        0.57570000      -0.78560000      -0.89290000
C        2.00880000      -0.82270000      -0.76540000
C        2.43810000      -1.50070000       0.54540000
C        2.45440000      -1.66670000      -1.96380000
C        2.59780000       0.59300000      -0.87030000
H       -0.37350000       1.68160000      -1.18130000
H       -1.70310000       0.51680000      -1.36490000
H       -1.63100000       1.56070000       0.06710000
H        0.42510000       0.38820000       0.83440000
H       -0.47860000      -1.77190000       1.40020000
H       -1.84430000      -0.63840000       1.40180000
H       -1.15270000      -2.14420000      -0.85110000
H        2.00930000      -2.50470000       0.61530000
H        3.52820000      -1.59060000       0.58690000
H        2.12350000      -0.92950000       1.42390000
H        2.12230000      -1.20380000      -2.89700000
H        3.54380000      -1.76200000      -1.98870000
H        2.02020000      -2.66900000      -1.90570000
H        2.28330000       1.22820000      -0.03680000
H        3.69150000       0.55300000      -0.85750000
H        2.28160000       1.06750000      -1.80360000
