17
Properties=species:S:1:pos:R:3 gdb_55998=T pbc="F F F"
O        0.13390000       0.03650000      -0.88800000
C        0.07940000       1.09630000      -0.08010000
O        1.01290000       1.40700000       0.61550000
C       -1.21680000       1.92550000      -0.08480000
C       -2.50340000       1.10800000       0.02230000
C       -3.87650000       1.85700000      -0.04160000
N       -4.21880000       0.97570000      -1.17270000
C       -2.96410000       0.42790000      -1.26430000
N       -2.30580000      -0.29370000      -2.07690000
H       -2.81140000      -0.56750000      -2.91640000
H       -0.69310000      -0.12170000      -1.41830000
H       -1.13440000       2.62150000       0.75250000
H       -1.23700000       2.52080000      -1.00720000
H       -2.45690000       0.41230000       0.86450000
H       -4.53390000       1.74900000       0.82490000
H       -3.78840000       2.91440000      -0.31240000
H       -4.90500000       1.11220000      -1.90010000
