20
Properties=species:S:1:pos:R:3 gdb_76831=T pbc="F F F"
C       -0.76060000       1.26470000       0.21380000
C       -0.05240000      -0.07360000       0.05570000
C        0.70040000      -0.42230000      -1.28830000
C        0.73810000       0.58810000      -2.42640000
C        2.01790000      -0.67470000      -0.47250000
C        1.26820000      -0.28410000       0.82900000
O        2.07850000       0.93210000       0.92480000
C        2.81520000       0.57540000      -0.19490000
N        3.79830000       1.14180000      -0.72950000
H       -0.07750000       2.10230000       0.05630000
H       -1.58710000       1.35570000      -0.49820000
H       -1.17770000       1.36360000       1.22180000
H       -0.74520000      -0.88450000       0.30540000
H        0.33510000      -1.37810000      -1.67450000
H        1.11840000       1.56110000      -2.10500000
H        1.38990000       0.23480000      -3.23200000
H       -0.26270000       0.73630000      -2.84580000
H        2.56700000      -1.59800000      -0.64320000
H        1.28200000      -0.83520000       1.76930000
H        4.05250000       1.99430000      -0.22690000
