22
Properties=species:S:1:pos:R:3 gdb_109996=T pbc="F F F"
C        0.24200000       1.49730000       0.30700000
C        0.14400000      -0.02100000       0.13260000
C       -1.29370000      -0.53720000       0.12820000
C       -1.52690000      -2.09360000       0.11370000
C       -0.34070000      -3.03110000      -0.05810000
C       -2.13520000      -1.95840000       1.54020000
N       -1.97610000      -0.50490000       1.43920000
C       -2.75930000       0.43430000       2.02170000
O       -3.52250000       0.21810000       2.94170000
H        1.28450000       1.82790000       0.28010000
H       -0.29630000       2.02540000      -0.48810000
H       -0.18050000       1.81380000       1.26580000
H        0.61190000      -0.31390000      -0.81600000
H        0.70730000      -0.51870000       0.92970000
H       -1.86240000      -0.01100000      -0.64990000
H       -2.30070000      -2.34770000      -0.61520000
H        0.44690000      -2.83570000       0.67580000
H       -0.66110000      -4.07030000       0.07200000
H        0.09920000      -2.94520000      -1.05710000
H       -3.17610000      -2.26910000       1.66610000
H       -1.53550000      -2.40640000       2.34080000
H       -2.62100000       1.43640000       1.56680000
