22
Properties=species:S:1:pos:R:3 gdb_100275=T pbc="F F F"
C       -0.11240000       1.58880000      -0.12280000
C        0.04240000       0.06540000      -0.07060000
C        0.73230000      -0.45910000       1.20230000
O       -0.03410000       0.02270000       2.31750000
C        0.83090000      -1.99850000       1.23160000
C       -0.50690000      -2.73960000       1.15170000
C        2.17660000       0.10170000       1.23480000
N        2.41880000       0.99060000       2.23550000
O        3.01370000      -0.25230000       0.42460000
H        0.85830000       2.09460000      -0.12430000
H       -0.63940000       1.88580000      -1.03440000
H       -0.68650000       1.95320000       0.73330000
H       -0.94620000      -0.39850000      -0.13640000
H        0.63060000      -0.28230000      -0.92540000
H        0.16990000      -0.53390000       3.07690000
H        1.50070000      -2.30370000       0.42360000
H        1.34590000      -2.27770000       2.16330000
H       -1.21780000      -2.35860000       1.89170000
H       -0.96950000      -2.64390000       0.16570000
H       -0.36040000      -3.80690000       1.34210000
H        1.63730000       1.36070000       2.75050000
H        3.29970000       1.47860000       2.23300000
