18
Properties=species:S:1:pos:R:3 gdb_113029=T pbc="F F F"
C       -0.17070000       1.53030000      -0.01770000
C       -0.10950000       0.00110000      -0.00220000
C        0.85110000      -0.54360000       1.05820000
O        0.41720000      -0.12170000       2.36740000
C        0.35720000      -1.22870000       3.25120000
C        0.61300000      -2.44450000       2.38550000
C        0.90250000      -2.04360000       1.15560000
C        1.36370000      -1.09950000       4.33200000
N        2.14140000      -1.01540000       5.18230000
H        0.81180000       1.96240000      -0.23740000
H       -0.87090000       1.88610000      -0.77880000
H       -0.49550000       1.91290000       0.95330000
H       -1.10430000      -0.42050000       0.18400000
H        0.21920000      -0.37420000      -0.97980000
H        1.85630000      -0.12960000       0.87210000
H       -0.63130000      -1.25420000       3.73240000
H        0.57700000      -3.45380000       2.77140000
H        1.14730000      -2.67620000       0.31200000
