15
Properties=species:S:1:pos:R:3 gdb_128044=T pbc="F F F"
C       -0.01000000       1.37380000      -0.03300000
N       -0.05730000      -0.03630000      -0.36260000
C       -1.08730000      -0.66840000      -0.03260000
O       -1.14420000      -2.01390000      -0.28970000
C       -2.32140000      -2.64430000      -0.12510000
N       -3.49110000      -2.03300000      -0.01880000
N       -4.32940000      -3.09780000       0.11460000
C       -3.63510000      -4.24760000       0.06810000
N       -2.34740000      -3.99930000      -0.08190000
H        0.85520000       1.56610000       0.61110000
H        0.14010000       1.95440000      -0.94970000
H       -0.91290000       1.74840000       0.47450000
H       -1.97560000      -0.27260000       0.46840000
H       -5.31900000      -2.94350000       0.21310000
H       -4.09230000      -5.22220000       0.14620000
