20
Properties=species:S:1:pos:R:3 gdb_73853=T pbc="F F F"
C        0.16630000       1.55820000      -0.17550000
C       -0.01170000       0.07380000       0.01370000
C       -1.17790000      -0.58260000       0.03630000
C       -2.53680000       0.04800000      -0.12430000
C       -1.24030000      -2.07730000       0.23280000
C        0.07000000      -2.82470000       0.40700000
O        0.10300000      -4.03120000       0.57090000
N        1.20110000      -2.06950000       0.36940000
C        1.30700000      -0.63810000       0.18290000
H        0.78410000       1.76750000      -1.05850000
H       -0.77520000       2.09230000      -0.29740000
H        0.69080000       2.00040000       0.68160000
H       -2.50880000       1.12810000      -0.26820000
H       -3.06290000      -0.39130000      -0.98180000
H       -3.15970000      -0.15740000       0.75590000
H       -1.85900000      -2.32140000       1.10740000
H       -1.76170000      -2.55120000      -0.61030000
H        2.05300000      -2.59870000       0.48830000
H        1.93730000      -0.42560000      -0.69630000
H        1.84050000      -0.19260000       1.03860000
