20
Properties=species:S:1:pos:R:3 gdb_54264=T pbc="F F F"
C       -0.12100000       1.60130000       0.04480000
C        0.07750000       0.08180000      -0.00250000
C        0.88000000      -0.38550000      -1.26080000
C        2.21530000      -0.90830000      -0.70060000
C        1.82580000      -1.38200000       0.70630000
N        0.83640000      -0.39650000       1.18640000
H        1.31540000       0.38440000       1.62190000
H       -0.79620000      -1.08660000       1.70310000
C       -1.32480000      -0.57500000       0.01390000
O       -2.08340000      -0.51330000      -0.91820000
O       -1.61620000      -1.19320000       1.16330000
H        0.83890000       2.11750000      -0.06690000
H       -0.78170000       1.91190000      -0.76730000
H       -0.57570000       1.91140000       0.99190000
H        0.33240000      -1.17340000      -1.78320000
H        1.01440000       0.43270000      -1.97170000
H        2.65550000      -1.69850000      -1.31450000
H        2.94940000      -0.09730000      -0.62760000
H        1.34620000      -2.36770000       0.65810000
H        2.66070000      -1.45480000       1.40730000
