18
Properties=species:S:1:pos:R:3 gdb_92305=T pbc="F F F"
C       -0.77640000       1.32600000       0.12640000
C       -0.00470000       0.03340000      -0.01840000
O        1.15530000       0.15090000      -0.88880000
C        1.99910000      -0.52940000       0.06060000
C        3.15540000       0.34830000       0.56290000
N        2.56880000       1.04060000       1.69670000
C        1.34720000       0.58920000       2.12200000
O        0.73760000       0.98960000       3.09020000
C        0.89750000      -0.48590000       1.13400000
H       -0.12990000       2.13590000       0.47290000
H       -1.20520000       1.61210000      -0.83910000
H       -1.59130000       1.20210000       0.84610000
H       -0.66520000      -0.76360000      -0.38700000
H        2.33440000      -1.50140000      -0.31400000
H        4.02080000      -0.25940000       0.86050000
H        3.46970000       1.03860000      -0.22740000
H        3.05280000       1.74980000       2.22420000
H        0.57710000      -1.39130000       1.64710000
