16
Properties=species:S:1:pos:R:3 gdb_49402=T pbc="F F F"
O       -0.93860000       1.04570000      -0.41770000
C        0.15950000       0.87100000       0.04240000
C        1.25350000       1.91980000       0.06340000
C        1.46570000       2.50180000       1.45750000
C        2.43890000       1.62090000       2.20770000
C        2.91650000       2.91510000       1.58070000
C        3.61460000       2.10060000       0.45760000
C        3.14610000       0.82970000       1.07090000
N        2.56220000       1.30460000      -0.20160000
H        0.44610000      -0.09290000       0.52030000
H        1.03180000       2.68610000      -0.68410000
H        0.69430000       3.04680000       1.98660000
H        2.35540000       1.33940000       3.24690000
H        3.26000000       3.82880000       2.04280000
H        4.51260000       2.35760000      -0.08810000
H        3.58770000      -0.15630000       1.12510000
