12
Properties=species:S:1:pos:R:3 gdb_131016=T pbc="F F F"
O       -0.08480000      -0.05630000      -0.00020000
C       -0.02870000       1.13420000       0.00890000
N        1.17780000       1.88120000       0.00180000
C        1.15900000       3.25700000       0.01320000
N        2.19030000       4.01860000       0.00820000
C        3.45110000       3.38680000      -0.01090000
O        4.49100000       4.00260000      -0.01740000
C        3.41710000       1.90270000      -0.02260000
N        2.35230000       1.18150000      -0.01680000
H       -0.90070000       1.81120000       0.02400000
H        0.15920000       3.69140000       0.02790000
H        4.36440000       1.37130000      -0.03730000
