13
Properties=species:S:1:pos:R:3 gdb_35595=T pbc="F F F"
C       -0.30150000      -1.24420000      -0.23070000
C       -0.09560000      -0.06790000      -0.10440000
C        0.10910000       1.35920000       0.06750000
C       -0.47160000       1.94470000       1.39990000
N        0.68940000       2.46480000       2.12820000
C        1.69170000       2.25270000       1.38020000
O        1.53880000       1.65700000       0.17250000
C        3.04220000       2.61160000       1.71430000
N        4.12880000       2.90150000       1.97670000
H       -0.47570000      -2.28580000      -0.34910000
H       -0.25340000       1.90280000      -0.80940000
H       -1.18410000       2.75370000       1.21500000
H       -0.97470000       1.17950000       1.99610000
