21
Properties=species:S:1:pos:R:3 gdb_115371=T pbc="F F F"
O       -0.05730000       1.45450000       0.00290000
C        0.03230000       0.03730000      -0.01400000
C       -1.38710000      -0.53260000       0.04920000
C       -1.39120000      -2.05510000      -0.14730000
C       -2.77510000      -2.63840000       0.15460000
C       -3.19410000      -2.36900000       1.60810000
O       -2.60180000      -3.30460000       2.52090000
C       -2.87950000      -0.95540000       2.02570000
C       -2.07360000      -0.14570000       1.33670000
H        0.83210000       1.81430000       0.06200000
H        0.52570000      -0.31820000      -0.93270000
H        0.61690000      -0.33600000       0.84250000
H       -1.93580000      -0.06550000      -0.78400000
H       -1.07740000      -2.30730000      -1.16590000
H       -0.65190000      -2.51140000       0.52680000
H       -3.51540000      -2.18550000      -0.51780000
H       -2.79410000      -3.71870000      -0.01690000
H       -4.27130000      -2.55030000       1.70470000
H       -1.71000000      -2.99300000       2.70670000
H       -3.32050000      -0.62190000       2.96220000
H       -1.87590000       0.86270000       1.68990000
