15
Properties=species:S:1:pos:R:3 gdb_128246=T pbc="F F F"
C        0.07880000       1.42000000      -0.06800000
N       -0.05990000      -0.00320000       0.11660000
C       -1.25240000      -0.65370000       0.05930000
C       -2.48940000      -0.08450000       0.03600000
O       -3.64800000      -0.78790000       0.01550000
N       -3.65290000      -2.15170000       0.00050000
C       -2.50010000      -2.74410000       0.00090000
C       -1.18730000      -2.11270000       0.02060000
O       -0.12380000      -2.72540000      -0.00120000
H        1.13560000       1.68650000      -0.01670000
H       -0.31910000       1.76210000      -1.03580000
H       -0.44350000       1.97080000       0.72500000
H        0.72820000      -0.61530000      -0.03920000
H       -2.69470000       0.97770000       0.04040000
H       -2.55070000      -3.82870000      -0.01720000
