21
Properties=species:S:1:pos:R:3 gdb_59580=T pbc="F F F"
C        0.11450000       1.40730000      -0.23910000
C        0.00550000      -0.09860000       0.00180000
O        0.71120000      -0.48890000       1.17910000
C       -1.43870000      -0.58250000       0.06380000
C       -2.35770000      -0.46130000      -1.19730000
C       -2.72780000      -1.96820000      -1.07740000
C       -1.79050000      -2.89650000      -1.85870000
O       -0.78870000      -2.83330000      -0.81550000
C       -1.67960000      -2.11120000       0.06440000
H        1.16490000       1.71030000      -0.25900000
H       -0.34810000       1.69870000      -1.18760000
H       -0.38760000       1.96710000       0.56090000
H        0.50890000      -0.63980000      -0.80640000
H        0.34070000       0.00660000       1.91820000
H       -1.93280000      -0.13300000       0.93650000
H       -3.19460000       0.23020000      -1.08230000
H       -1.83410000      -0.21100000      -2.12560000
H       -3.78090000      -2.23220000      -0.99600000
H       -2.16310000      -3.92180000      -1.98580000
H       -1.41550000      -2.52930000      -2.82270000
H       -1.82400000      -2.62780000       1.01660000
