15
Properties=species:S:1:pos:R:3 gdb_24270=T pbc="F F F"
C       -0.01080000       1.47460000       0.11160000
C        1.29190000       0.73210000       0.04380000
O        1.99740000       0.41320000       1.23890000
C        1.16220000      -0.43600000       1.90930000
C        0.03300000      -0.77620000       1.22730000
N       -0.65120000      -1.59720000       2.09880000
C        0.13080000      -1.69830000       3.22230000
N        1.24620000      -0.98410000       3.14170000
C       -0.04010000      -0.04560000      -0.04730000
H       -0.33320000       1.89240000       1.05850000
H       -0.25370000       2.06980000      -0.76270000
H        1.96210000       0.86990000      -0.79470000
H       -1.53060000      -2.06110000       1.94860000
H       -0.15250000      -2.31950000       4.05790000
H       -0.39080000      -0.49290000      -0.97100000
