18
Properties=species:S:1:pos:R:3 gdb_76728=T pbc="F F F"
O       -0.18380000       1.34640000       0.14610000
C       -0.01440000      -0.03440000       0.04210000
C       -0.39560000      -0.80600000       1.28340000
O       -0.81280000      -0.06480000       2.38510000
C       -1.30260000      -0.85250000       0.06430000
N       -2.50600000      -0.06160000       0.12570000
C       -3.46780000      -0.29400000      -0.94020000
C       -4.51580000       0.80730000      -0.98320000
O       -5.64870000       0.64870000      -1.35110000
H       -1.14320000       1.48180000       0.02250000
H        0.82980000      -0.33110000      -0.57180000
H        0.14510000      -1.71080000       1.54630000
H       -0.55230000       0.85000000       2.19270000
H       -1.34830000      -1.78420000      -0.49570000
H       -2.92830000      -0.14490000       1.04530000
H       -2.93320000      -0.24950000      -1.90010000
H       -3.97830000      -1.26770000      -0.90070000
H       -4.13360000       1.80040000      -0.65290000
