25
Properties=species:S:1:pos:R:3 gdb_116437=T pbc="F F F"
C       -0.22700000       1.58780000      -0.05010000
C        0.00700000       0.06800000       0.00650000
C        0.74290000      -0.44800000      -1.24940000
C        2.22760000      -0.05330000      -1.28110000
C        2.95230000      -0.51560000      -0.00960000
C        2.24540000      -0.00810000       1.25440000
C        0.76010000      -0.41120000       1.27260000
C        0.07430000       0.01350000       2.56950000
O        0.66000000      -0.72380000       3.63660000
H        0.70650000       2.15810000      -0.02960000
H       -0.75310000       1.85570000      -0.97280000
H       -0.84170000       1.93380000       0.78650000
H       -0.98540000      -0.40380000       0.02150000
H        0.67100000      -1.54390000      -1.27070000
H        0.23330000      -0.08650000      -2.15090000
H        2.70540000      -0.48240000      -2.16940000
H        2.32280000       1.03590000      -1.37990000
H        2.97870000      -1.61430000       0.01060000
H        3.99600000      -0.18130000      -0.02200000
H        2.72950000      -0.39970000       2.15360000
H        2.33160000       1.08640000       1.30790000
H        0.72220000      -1.51070000       1.26460000
H        0.19810000       1.09560000       2.73080000
H       -1.00810000      -0.18760000       2.50100000
H        0.31280000      -0.38110000       4.46490000
