18
Properties=species:S:1:pos:R:3 gdb_6023=T pbc="F F F"
C        0.10940000       1.56350000      -0.09570000
C        0.04900000       0.03670000      -0.01190000
O        0.73960000      -0.44790000       1.12050000
C       -1.41140000      -0.53310000       0.02160000
C       -1.37330000      -2.06990000      -0.02470000
N       -2.01190000      -0.11040000       1.29920000
C       -2.17900000      -0.03530000      -1.14000000
N       -2.79430000       0.36970000      -2.03180000
H        1.15580000       1.87770000      -0.10370000
H       -0.37630000       1.94020000      -1.00040000
H       -0.36530000       2.02720000       0.77620000
H        0.55020000      -0.39150000      -0.88710000
H        0.14530000      -0.28710000       1.86880000
H       -0.76300000      -2.43180000       0.80370000
H       -2.38210000      -2.48640000       0.05070000
H       -0.93360000      -2.41320000      -0.96390000
H       -2.31000000       0.85900000       1.25430000
H       -2.83910000      -0.66320000       1.50000000
