22
Properties=species:S:1:pos:R:3 gdb_104072=T pbc="F F F"
C        0.05530000       1.59860000       0.20470000
C        0.11250000       0.07110000       0.11570000
C        0.64110000      -0.49140000      -1.21090000
C        2.05500000      -0.02950000      -1.55350000
C        0.47420000      -2.04020000      -1.29650000
N       -0.48600000      -2.28050000      -2.37800000
C       -0.80680000      -1.13780000      -2.83370000
C       -1.76150000      -0.86970000      -3.94730000
O       -0.24560000      -0.02930000      -2.28000000
H        1.05240000       2.04870000       0.18240000
H       -0.52160000       2.01190000      -0.62720000
H       -0.42330000       1.91040000       1.13790000
H        0.73660000      -0.33260000       0.92350000
H       -0.89250000      -0.34070000       0.26880000
H        2.75550000      -0.34200000      -0.77190000
H        2.37840000      -0.47380000      -2.49930000
H        2.10960000       1.05740000      -1.65200000
H        1.42260000      -2.54400000      -1.51740000
H        0.09640000      -2.46310000      -0.35800000
H       -2.15690000      -1.81160000      -4.32600000
H       -2.58480000      -0.23880000      -3.59740000
H       -1.25970000      -0.32900000      -4.75590000
