17
Properties=species:S:1:pos:R:3 gdb_15693=T pbc="F F F"
C       -0.40900000       1.05900000       0.10040000
O        0.13190000      -0.24640000      -0.02120000
C        0.87020000      -0.45850000      -1.21350000
C        1.52130000      -1.83680000      -1.11690000
C        0.39160000      -2.75090000      -1.60650000
O       -0.33250000      -1.96570000      -2.57460000
C       -0.07260000      -0.63940000      -2.39990000
N       -0.56170000       0.29570000      -3.09600000
H        0.38890000       1.81690000       0.11090000
H       -1.09980000       1.29470000      -0.71670000
H       -0.94100000       1.08790000       1.05410000
H        1.57220000       0.36500000      -1.39020000
H        2.37910000      -1.89270000      -1.79340000
H        1.84990000      -2.06000000      -0.10100000
H        0.73610000      -3.65880000      -2.10610000
H       -0.29000000      -3.02330000      -0.79390000
H       -1.20100000      -0.07920000      -3.80070000
