17
Properties=species:S:1:pos:R:3 gdb_23050=T pbc="F F F"
O       -0.15450000       1.38140000       0.02380000
N       -0.00900000      -0.00970000       0.13570000
C       -1.11900000      -0.59860000       0.00510000
C       -2.56500000      -0.24410000      -0.26070000
N       -2.82800000      -1.70660000      -0.41690000
C       -1.46650000      -2.06620000       0.04300000
C       -0.65130000      -3.16560000      -0.66830000
O       -0.41600000      -3.86310000       0.57320000
C       -1.21400000      -2.92470000       1.31080000
H        0.75150000       1.69190000       0.12920000
H       -3.05850000       0.24260000       0.59070000
H       -2.76420000       0.34440000      -1.16220000
H       -3.57330000      -2.06650000       0.16960000
H       -1.24350000      -3.75560000      -1.37830000
H        0.28040000      -2.83240000      -1.13880000
H       -0.65180000      -2.43540000       2.11480000
H       -2.12330000      -3.38390000       1.72630000
