18
Properties=species:S:1:pos:R:3 gdb_73213=T pbc="F F F"
O       -0.02610000       1.24530000      -0.56640000
C        0.05570000      -0.04790000       0.01030000
C        0.29470000      -1.16040000      -1.05800000
C       -1.24450000      -1.34900000      -1.15930000
C       -1.39970000      -0.56310000       0.16610000
O       -1.59280000      -1.45050000       1.27430000
C       -0.55450000      -1.71080000       2.10550000
N        0.58750000      -1.17570000       2.18240000
C        0.88280000      -0.06220000       1.28830000
H        0.84620000       1.47300000      -0.90730000
H        0.82140000      -0.83730000      -1.95910000
H        0.80290000      -2.03300000      -0.63950000
H       -1.68050000      -0.80890000      -2.00160000
H       -1.63290000      -2.36820000      -1.13840000
H       -2.16990000       0.20800000       0.22300000
H       -0.83460000      -2.51400000       2.78470000
H        1.95560000      -0.07990000       1.05440000
H        0.69290000       0.87810000       1.82290000
