17
Properties=species:S:1:pos:R:3 gdb_64515=T pbc="F F F"
O        0.02760000       1.37080000      -0.11460000
C       -0.00440000      -0.01890000      -0.06320000
C        1.15140000      -0.62280000       0.67760000
C        2.45370000       0.04900000       0.73260000
O        1.54520000       0.11420000       1.84470000
C       -1.31670000      -0.78180000       0.06840000
C       -2.37300000      -0.05870000      -0.76150000
O       -1.52380000      -0.07060000      -1.94210000
C       -0.52220000      -0.78840000      -1.23700000
H        0.17990000       1.66230000       0.79500000
H        1.11430000      -1.70340000       0.81700000
H        3.35410000      -0.53660000       0.90780000
H        2.58680000       0.98260000       0.19250000
H       -1.49490000      -1.54950000       0.81050000
H       -3.27640000      -0.65090000      -0.93890000
H       -2.63400000       0.95790000      -0.45190000
H        0.02800000      -1.55190000      -1.77840000
