19
Properties=species:S:1:pos:R:3 gdb_91544=T pbc="F F F"
C        0.01630000       1.61950000      -0.02240000
C        0.08190000       0.11050000       0.08420000
O        1.06350000      -0.49150000      -0.81800000
C        1.62290000      -1.23790000       0.25870000
C        2.22670000      -0.33810000       1.28700000
C        0.72690000      -0.58410000       1.29300000
C       -0.00150000      -1.14960000       2.45040000
C       -1.19440000      -0.51420000       3.03090000
O       -1.31330000      -1.67300000       2.20380000
H        0.96900000       2.08680000       0.24020000
H       -0.23500000       1.90960000      -1.04750000
H       -0.76150000       2.01550000       0.63940000
H       -0.89780000      -0.33960000      -0.11390000
H        1.89500000      -2.27190000       0.08040000
H        2.75980000      -0.83980000       2.08980000
H        2.63980000       0.62260000       0.99430000
H        0.60450000      -1.77170000       3.11150000
H       -1.42910000      -0.66170000       4.08440000
H       -1.57690000       0.40930000       2.59830000
