20
Properties=species:S:1:pos:R:3 gdb_121297=T pbc="F F F"
C        0.00550000       1.52910000       0.10380000
C        0.07410000       0.01750000      -0.02980000
O        0.66020000      -0.50540000       1.15260000
C        0.73300000      -1.91440000       1.21770000
C        1.98660000      -2.44220000       0.51270000
O        2.11860000      -3.85850000       0.69300000
C        1.77630000      -4.31950000       1.92300000
N        1.21650000      -3.71600000       2.88100000
C        0.80420000      -2.32820000       2.68710000
H        1.00760000       1.95020000       0.22400000
H       -0.45190000       1.96930000      -0.78720000
H       -0.59050000       1.80890000       0.97690000
H       -0.93400000      -0.40650000      -0.16530000
H        0.66380000      -0.25950000      -0.91770000
H       -0.15490000      -2.36930000       0.75090000
H        1.96210000      -2.27790000      -0.56650000
H        2.87010000      -1.93830000       0.92480000
H        2.05570000      -5.36770000       2.01110000
H        1.50460000      -1.66230000       3.20750000
H       -0.16950000      -2.18700000       3.16720000
