15
Properties=species:S:1:pos:R:3 gdb_11346=T pbc="F F F"
N        0.22060000       0.89520000       0.10110000
H       -1.82510000      -1.09690000       0.84800000
H        1.17280000       1.24730000       0.12020000
H       -0.11650000       1.02370000      -0.84870000
C       -0.61710000       1.66960000       1.02900000
C       -1.97980000       1.06610000       1.12550000
C       -2.27470000      -0.35660000       1.51730000
C       -3.79770000      -0.42220000       1.43430000
O       -4.54600000      -1.32480000       1.64850000
O       -4.25290000       0.82810000       1.03870000
C       -3.14990000       1.64800000       0.86960000
H       -3.38660000       2.65450000       0.55590000
H       -0.12710000       1.62980000       2.01160000
H       -0.71710000       2.73770000       0.77230000
H       -1.95070000      -0.61550000       2.53230000
