19
Properties=species:S:1:pos:R:3 gdb_67568=T pbc="F F F"
C        0.02870000       1.52150000      -0.06240000
C        0.02870000       0.00950000      -0.00310000
C        0.42530000      -0.74230000      -1.27750000
O        1.61620000      -1.54310000      -1.14440000
C        0.33130000      -2.13840000      -0.87160000
C       -0.10990000      -2.00360000       0.57730000
C        0.65310000      -0.78970000       1.19950000
C       -0.59650000      -0.48120000       2.06110000
C       -1.15080000      -0.82350000       0.66120000
H        1.03320000       1.89710000      -0.28710000
H       -0.63970000       1.87970000      -0.85400000
H       -0.29590000       1.98070000       0.87520000
H        0.21510000      -0.35990000      -2.27200000
H        0.03520000      -2.95910000      -1.51640000
H       -0.27010000      -2.89490000       1.18450000
H        1.69960000      -0.77790000       1.50180000
H       -0.82060000      -1.19520000       2.85830000
H       -0.72230000       0.54270000       2.41870000
H       -2.19540000      -0.84860000       0.34120000
