25
Properties=species:S:1:pos:R:3 gdb_59252=T pbc="F F F"
C        0.07610000       1.36420000      -0.32280000
C        0.09580000      -0.09930000       0.14270000
C        0.68640000      -0.22620000       1.55510000
C       -1.30280000      -0.69470000       0.09230000
C       -2.01870000      -1.17360000      -1.14690000
C       -1.06730000      -1.90000000      -2.10540000
C       -0.69080000      -2.88900000      -0.95750000
C       -1.66090000      -2.15550000      -0.01290000
C       -2.54550000      -2.85670000       0.97940000
H        1.08260000       1.79600000      -0.32010000
H       -0.32950000       1.45180000      -1.33560000
H       -0.54890000       1.97610000       0.33910000
H        0.74790000      -0.65700000      -0.53990000
H        0.07610000       0.31920000       2.28500000
H        0.72960000      -1.27230000       1.87470000
H        1.70100000       0.18410000       1.60000000
H       -1.98800000      -0.17410000       0.76410000
H       -2.99260000      -0.78200000      -1.42090000
H       -1.59430000      -2.40120000      -2.92030000
H       -0.25680000      -1.30520000      -2.53950000
H       -1.02160000      -3.90870000      -1.17220000
H        0.35980000      -2.93040000      -0.65120000
H       -1.96660000      -3.24620000       1.82660000
H       -3.30310000      -2.17810000       1.38550000
H       -3.06750000      -3.70560000       0.52140000
