18
Properties=species:S:1:pos:R:3 gdb_86866=T pbc="F F F"
C       -0.30560000       1.49090000       0.00330000
C        0.10490000       0.02330000      -0.03570000
C        0.95750000      -0.42920000      -1.23320000
N        1.69430000      -1.58600000      -0.72400000
C        1.93630000      -1.48900000       0.70500000
C        0.95840000      -0.40510000       1.16800000
O        0.88950000       0.04520000       2.27950000
C        1.93460000      -2.72720000      -1.42090000
O        2.46480000      -3.71660000      -0.96090000
H        0.56620000       2.14430000      -0.10520000
H       -1.01160000       1.72880000      -0.79730000
H       -0.77500000       1.71960000       0.96310000
H       -0.79050000      -0.61510000       0.00670000
H        0.36840000      -0.71150000      -2.10900000
H        1.64360000       0.37650000      -1.53320000
H        1.75340000      -2.44900000       1.19760000
H        2.96380000      -1.18790000       0.94870000
H        1.58530000      -2.65340000      -2.47020000
