17
Properties=species:S:1:pos:R:3 gdb_67318=T pbc="F F F"
O       -0.08940000       1.32830000      -0.03270000
C        0.01740000      -0.04320000      -0.04080000
C        0.41410000      -0.99880000       1.14920000
C       -1.02970000      -1.00440000       1.69220000
C       -1.20500000      -0.98700000       0.15880000
C        0.03930000      -1.91560000      -0.05910000
C        0.68840000      -0.96620000      -1.10440000
C        0.17770000      -0.96100000      -2.45920000
C       -0.25300000      -0.95110000      -3.58250000
H        0.79430000       1.70950000       0.01470000
H        1.36490000      -1.00700000       1.68550000
H       -1.35370000      -1.91030000       2.21310000
H       -1.35440000      -0.11030000       2.23070000
H       -2.11360000      -0.98590000      -0.44160000
H        0.03530000      -3.00280000      -0.06410000
H        1.78540000      -0.96000000      -1.08870000
H       -0.63330000      -0.94130000      -4.57380000
