19
Properties=species:S:1:pos:R:3 gdb_40743=T pbc="F F F"
C        0.61870000       1.66350000       0.34030000
C        0.93620000       0.45000000      -0.49070000
C       -0.36350000       0.51950000       0.27940000
C       -0.55190000      -0.35670000       1.47320000
O       -1.45780000       0.19020000       2.48850000
C       -2.24810000      -1.00940000       2.50970000
C       -3.41220000      -0.97610000       1.51070000
O       -2.54800000      -1.45600000       0.44440000
C       -1.43870000      -1.61480000       1.34870000
H        1.17060000       1.80810000       1.26300000
H        0.35390000       2.58420000      -0.16700000
H        0.88730000       0.53000000      -1.57050000
H        1.70690000      -0.22460000      -0.13180000
H       -1.26650000       0.67130000      -0.30140000
H        0.41730000      -0.58620000       1.94130000
H       -2.39470000      -1.41780000       3.51080000
H       -4.22000000      -1.69140000       1.71190000
H       -3.82570000       0.01710000       1.30870000
H       -0.97360000      -2.60000000       1.28550000
