15
Properties=species:S:1:pos:R:3 gdb_15134=T pbc="F F F"
O       -0.10640000       0.38400000      -0.27920000
C        0.41350000       1.45040000      -0.37020000
O        0.99400000       2.04360000       0.72800000
C        1.44600000       3.33220000       0.63170000
N        1.09090000       4.12460000      -0.27570000
C        1.61710000       5.45870000      -0.30040000
C        2.93550000       5.88290000       0.30610000
C        2.77720000       5.79220000      -1.19720000
H        0.51430000       2.05950000      -1.27720000
H        2.12020000       3.54370000       1.46410000
H        0.81690000       6.19300000      -0.28220000
H        2.98890000       6.86280000       0.76730000
H        3.56460000       5.13920000       0.78140000
H        3.26650000       4.96140000      -1.69410000
H        2.73290000       6.70440000      -1.78120000
