15
Properties=species:S:1:pos:R:3 gdb_30478=T pbc="F F F"
C        0.20160000       1.47150000       0.18730000
N        0.26770000       0.02660000       0.09400000
C        0.44540000      -0.55180000      -1.00700000
N        0.50950000      -1.93240000      -1.10220000
C        0.70000000      -2.70290000      -2.24770000
O        0.73680000      -3.91350000      -2.19600000
C        0.84200000      -1.88910000      -3.45740000
C        0.78040000      -0.55860000      -3.36480000
O        0.59160000       0.12280000      -2.20880000
H        0.98060000       1.82300000       0.87350000
H        0.31760000       1.99540000      -0.76770000
H       -0.76010000       1.75910000       0.62710000
H        0.40350000      -2.42920000      -0.22860000
H        0.99440000      -2.38600000      -4.40400000
H        0.87410000       0.12470000      -4.20050000
