20
Properties=species:S:1:pos:R:3 gdb_115460=T pbc="F F F"
O       -0.14400000       1.44560000      -0.06890000
C       -0.02340000       0.03080000      -0.08610000
C       -1.41880000      -0.55320000       0.04600000
C       -1.46390000      -2.09250000       0.08710000
C       -2.83480000      -2.40670000       0.70790000
N       -3.12640000      -1.22000000       1.51730000
C       -2.13220000      -0.16130000       1.35130000
C       -4.25600000      -1.12530000       2.25610000
O       -5.09060000      -2.00430000       2.35570000
H        0.73590000       1.82810000      -0.13340000
H        0.44020000      -0.32160000      -1.02100000
H        0.60350000      -0.32680000       0.74800000
H       -2.02210000      -0.19680000      -0.79790000
H       -1.33820000      -2.55190000      -0.89600000
H       -0.66170000      -2.46910000       0.73350000
H       -3.61310000      -2.53910000      -0.05320000
H       -2.83440000      -3.30870000       1.32630000
H       -1.41450000      -0.14860000       2.18560000
H       -2.60140000       0.82340000       1.30010000
H       -4.34290000      -0.14580000       2.76870000
