16
Properties=species:S:1:pos:R:3 gdb_17005=T pbc="F F F"
C        0.04330000       1.45990000      -0.00750000
C        1.39130000       0.76290000      -0.04200000
C        1.64940000       0.06140000       1.29810000
O        0.34780000      -0.59500000       1.27900000
C        0.09750000      -0.02960000      -0.01420000
C        0.04570000      -0.82260000      -1.29620000
O        0.95140000      -0.12950000      -2.16620000
C        2.01420000       0.44590000      -1.37950000
H       -0.26780000       1.96690000       0.89960000
H       -0.25780000       1.93010000      -0.93740000
H        2.45910000      -0.67600000       1.25120000
H        1.77400000       0.69320000       2.18440000
H        0.37040000      -1.85370000      -1.08880000
H       -0.91990000      -0.84780000      -1.80900000
H        2.38260000       1.30320000      -1.95020000
H        2.84250000      -0.26790000      -1.24730000
