21
Properties=species:S:1:pos:R:3 gdb_110846=T pbc="F F F"
C       -0.48780000       0.96080000      -0.03110000
O        0.49700000      -0.03560000       0.15390000
C        0.92770000      -0.60400000      -1.03540000
C        1.41250000      -2.01620000      -1.00230000
C        1.00790000      -2.86700000       0.20210000
C       -0.50520000      -2.96420000       0.11340000
C       -1.30560000      -3.65670000       1.16940000
C       -0.96280000      -2.34060000      -0.97810000
C        0.11870000      -1.68060000      -1.75740000
H       -0.11630000       1.78400000      -0.66040000
H       -1.39380000       0.54780000      -0.49550000
H       -0.73710000       1.35590000       0.95660000
H        1.46850000       0.08720000      -1.68610000
H        2.33060000      -2.25380000      -1.52690000
H        1.47550000      -3.86020000       0.16650000
H        1.32030000      -2.40510000       1.14730000
H       -1.19080000      -3.16320000       2.14310000
H       -2.37110000      -3.67110000       0.92330000
H       -0.97260000      -4.69390000       1.30630000
H       -2.00860000      -2.27350000      -1.25850000
H        0.06970000      -1.63890000      -2.84070000
