21
Properties=species:S:1:pos:R:3 gdb_122914=T pbc="F F F"
C        0.00730000       1.41580000      -0.01050000
O        0.00730000       0.00870000       0.03420000
C       -1.28880000      -0.54260000      -0.00270000
C       -1.16600000      -2.06050000       0.05050000
C       -2.52870000      -2.75660000       0.04250000
C       -2.41400000      -4.30260000       0.05120000
N       -1.75570000      -4.91040000       1.20930000
C       -3.75880000      -4.88860000      -0.08910000
N       -4.82940000      -5.30920000      -0.19600000
H        1.04880000       1.74430000       0.02130000
H       -0.45730000       1.79580000      -0.93420000
H       -0.52970000       1.85230000       0.84660000
H       -1.88940000      -0.17660000       0.84890000
H       -1.81600000      -0.23160000      -0.92170000
H       -0.56560000      -2.39200000      -0.80600000
H       -0.60360000      -2.32410000       0.95340000
H       -3.12200000      -2.44700000       0.91240000
H       -3.09810000      -2.45660000      -0.84570000
H       -1.84270000      -4.60820000      -0.83550000
H       -0.78790000      -4.60900000       1.24990000
H       -2.20390000      -4.60470000       2.06840000
