18
Properties=species:S:1:pos:R:3 gdb_91309=T pbc="F F F"
O        0.48520000       0.61670000      -1.10850000
C        0.05450000      -0.26420000      -0.11700000
C        0.09350000       0.11230000       1.39610000
C       -1.25870000      -0.63810000       1.59550000
C       -2.48450000       0.28750000       1.72050000
C       -2.53640000       0.41850000       0.15480000
C       -2.22400000       1.73460000      -0.37970000
N       -1.94920000       2.78770000      -0.77500000
C       -1.43040000      -0.69510000       0.03260000
H        0.02870000       1.46080000      -1.00970000
H        0.63480000      -1.18080000      -0.26860000
H        0.95290000      -0.26100000       1.95610000
H        0.01000000       1.18920000       1.57560000
H       -1.22720000      -1.53410000       2.21370000
H       -3.37630000      -0.22050000       2.09390000
H       -2.34670000       1.21630000       2.27860000
H       -3.49180000       0.10060000      -0.26830000
H       -1.76230000      -1.57330000      -0.52140000
