18
Properties=species:S:1:pos:R:3 gdb_68298=T pbc="F F F"
O        0.05230000       1.38750000       0.03910000
C        0.09030000       0.00700000       0.02340000
C        0.57130000      -0.98780000      -1.06700000
N       -0.01500000      -1.91240000       0.01180000
C        0.70470000      -1.00780000       1.02480000
C       -1.14950000      -0.88430000       0.09400000
C       -2.20350000      -0.93880000       1.20490000
O       -3.26530000      -0.93180000       0.22840000
C       -2.33610000      -0.91890000      -0.87490000
H        0.95190000       1.72880000      -0.01560000
H        0.03400000      -1.02130000      -2.01740000
H        1.64700000      -1.12170000      -1.20850000
H        1.78950000      -1.14310000       1.02590000
H        0.29240000      -1.06020000       2.03490000
H       -2.19630000      -1.85850000       1.80380000
H       -2.24740000      -0.06660000       1.86890000
H       -2.46300000      -0.03420000      -1.51120000
H       -2.40620000      -1.82690000      -1.48730000
