21
Properties=species:S:1:pos:R:3 gdb_108702=T pbc="F F F"
C       -0.35650000       1.45970000       0.02160000
C        0.24680000       0.04280000       0.00720000
C        0.91550000      -0.30120000      -1.28680000
C        2.18560000      -0.59820000      -1.55010000
C        3.35680000      -1.38180000      -0.99150000
C        3.10220000      -2.36170000      -2.20110000
C        2.31780000      -1.19490000      -2.91030000
O        1.00680000      -1.32580000      -3.42600000
C        0.14010000      -0.54600000      -2.58270000
H        0.41800000       2.21420000      -0.14680000
H       -1.11340000       1.57850000      -0.76050000
H       -0.83490000       1.66900000       0.98330000
H        0.97060000      -0.05270000       0.82430000
H       -0.55510000      -0.68230000       0.20830000
H        4.32040000      -0.87130000      -1.08420000
H        3.26110000      -1.77820000       0.02130000
H        3.98040000      -2.76180000      -2.71370000
H        2.42270000      -3.16930000      -1.92260000
H        2.96320000      -0.66950000      -3.62930000
H       -0.77740000      -1.11990000      -2.38910000
H       -0.15710000       0.37730000      -3.10640000
