14
Properties=species:S:1:pos:R:3 gdb_30303=T pbc="F F F"
O        0.17420000       1.37220000      -0.24210000
C        0.06410000      -0.02600000      -0.02520000
C        0.47940000      -0.46210000       1.44160000
O       -0.71870000      -0.92060000       2.18380000
C       -1.62500000      -0.98970000       1.21370000
C       -1.32470000      -0.57820000      -0.03050000
N       -2.44880000      -0.75700000      -0.83220000
C       -3.32230000      -1.25840000      -0.02440000
O       -2.88210000      -1.43850000       1.29070000
H       -0.62070000       1.78680000       0.11180000
H        0.75170000      -0.47580000      -0.74720000
H        1.17550000      -1.30350000       1.43330000
H        0.90520000       0.37830000       1.99080000
H       -4.33880000      -1.55990000      -0.21450000
