17
Properties=species:S:1:pos:R:3 gdb_66573=T pbc="F F F"
O        0.13820000       1.30810000      -0.11000000
C        0.09840000      -0.05970000       0.00240000
C       -0.14550000      -0.95370000      -1.19580000
C       -1.06070000      -1.04100000       0.02480000
C       -0.04660000      -2.08400000       0.58080000
C        0.70610000      -2.18520000      -0.80110000
C        2.01440000      -1.65130000      -0.15980000
C        1.04560000      -0.95890000       0.83100000
O        1.40320000      -0.41390000       2.05530000
H        0.01120000       1.67370000       0.77340000
H       -0.36350000      -0.54410000      -2.17350000
H       -2.13060000      -0.91050000       0.11120000
H       -0.23750000      -2.91450000       1.25630000
H        0.68980000      -3.07160000      -1.43260000
H        2.58150000      -2.45820000       0.32010000
H        2.68370000      -1.02610000      -0.75860000
H        1.93120000      -1.05710000       2.53910000
