20
Properties=species:S:1:pos:R:3 gdb_92226=T pbc="F F F"
C       -0.22810000       1.53800000      -0.16930000
C        0.00960000       0.06280000       0.07510000
O        0.81740000      -0.61650000      -0.93060000
C        1.37610000      -1.48690000       0.09370000
C        2.90130000      -1.56800000       0.15610000
C        3.30750000      -0.38840000       1.03460000
C        2.89760000       0.95060000       0.56160000
N        2.10530000       0.26980000       1.60940000
C        0.92150000      -0.49660000       1.18990000
H        0.68080000       2.13620000      -0.11060000
H       -0.67260000       1.67620000      -1.16050000
H       -0.93730000       1.91920000       0.57280000
H       -0.96750000      -0.44260000       0.13830000
H        0.88800000      -2.46840000       0.06740000
H        3.19820000      -2.51500000       0.61930000
H        3.34690000      -1.53190000      -0.84270000
H        4.15730000      -0.50640000       1.70080000
H        3.40930000       1.84190000       0.91530000
H        2.51410000       1.00680000      -0.45090000
H        0.42420000      -0.88100000       2.08300000
