18
Properties=species:S:1:pos:R:3 gdb_74684=T pbc="F F F"
C        0.00660000       1.49470000       0.11320000
C        0.01890000       0.00340000       0.01240000
C        0.07070000      -0.74800000      -1.09310000
C       -0.00060000      -2.21590000      -0.77080000
C        1.28380000      -3.09470000      -0.83550000
C        1.36890000      -2.83240000       0.68250000
O        2.19210000      -2.97790000       1.54210000
N        0.10540000      -2.22010000       0.71800000
C       -0.07000000      -0.87060000       1.25960000
H        0.86200000       1.85840000       0.69590000
H        0.03950000       1.96610000      -0.87210000
H       -0.89490000       1.84660000       0.63050000
H        0.10180000      -0.36430000      -2.10620000
H       -0.90530000      -2.69670000      -1.16060000
H        1.13790000      -4.13650000      -1.12820000
H        2.12220000      -2.67060000      -1.39110000
H        0.71790000      -0.66420000       1.99300000
H       -1.03550000      -0.74920000       1.76990000
