21
Properties=species:S:1:pos:R:3 gdb_103292=T pbc="F F F"
C       -0.14050000       1.64460000      -0.01750000
C       -0.04970000       0.12110000       0.02810000
C       -1.44210000      -0.49010000      -0.15960000
O       -2.00530000      -0.16310000      -1.42880000
C        1.12010000      -0.63210000      -0.69140000
C        2.13380000      -0.10760000       0.34800000
C        0.86340000      -0.60630000       1.08840000
C        0.63860000      -0.83150000       2.55200000
O        0.89070000      -1.79880000       0.18800000
H        0.82440000       2.14950000      -0.08270000
H       -0.73890000       1.93720000      -0.88460000
H       -0.65500000       2.02010000       0.87510000
H       -1.40130000      -1.57210000      -0.00920000
H       -2.12910000      -0.06370000       0.58070000
H       -1.54010000      -0.68230000      -2.09190000
H        1.27040000      -0.83410000      -1.75370000
H        3.00380000      -0.75190000       0.48120000
H        2.38950000       0.95140000       0.37360000
H        0.64640000       0.12400000       3.08620000
H       -0.32590000      -1.31740000       2.72850000
H        1.42720000      -1.46600000       2.96770000
