23
Properties=species:S:1:pos:R:3 gdb_105055=T pbc="F F F"
C       -0.28110000       1.55990000      -0.06200000
C       -0.39080000       0.06430000      -0.36920000
C        0.70650000      -0.50650000      -1.26010000
C        1.38300000       0.31920000      -2.27370000
O        2.01920000       0.02460000      -1.02350000
C        0.65490000      -2.00790000      -1.46240000
C       -0.58520000      -2.51570000      -2.17800000
C        1.95450000      -2.73380000      -1.70490000
C        1.25270000      -2.87040000      -0.37450000
H        0.71440000       1.80440000       0.31640000
H       -0.46880000       2.17410000      -0.94840000
H       -1.01790000       1.84660000       0.69390000
H       -0.37220000      -0.50370000       0.56990000
H       -1.36180000      -0.15010000      -0.83090000
H        1.82570000      -0.16830000      -3.14110000
H        1.10930000       1.36210000      -2.41570000
H       -0.69710000      -2.04430000      -3.16160000
H       -0.52190000      -3.59690000      -2.33320000
H       -1.49940000      -2.32050000      -1.60760000
H        1.93890000      -3.57840000      -2.38560000
H        2.86340000      -2.14490000      -1.72000000
H        1.70770000      -2.37170000       0.47460000
H        0.76160000      -3.80840000      -0.13720000
