16
Properties=species:S:1:pos:R:3 gdb_74051=T pbc="F F F"
N        0.04380000       1.37560000       0.09290000
C       -0.02730000       0.01650000      -0.01790000
C       -1.19110000      -0.67950000      -0.00100000
C       -1.21990000      -2.12450000      -0.00050000
O       -2.24070000      -2.78450000       0.11040000
C        0.11200000      -2.85360000      -0.15380000
N        0.21020000      -4.12290000      -0.10590000
N        1.21310000      -2.06650000      -0.42540000
C        1.30990000      -0.67700000      -0.05020000
H        0.87140000       1.85070000      -0.22800000
H       -0.81020000       1.90530000       0.02280000
H       -2.14780000      -0.16880000       0.05510000
H       -0.73350000      -4.49480000       0.02680000
H        2.07980000      -2.58600000      -0.43130000
H        1.96200000      -0.15700000      -0.76690000
H        1.77380000      -0.53770000       0.94250000
