13
Properties=species:S:1:pos:R:3 gdb_68=T pbc="F F F"
C       -0.02630000       1.53880000      -0.00780000
C        0.01470000       0.00100000       0.00170000
C        0.74740000      -0.53390000       1.24420000
C       -1.40210000      -0.53860000      -0.01560000
O       -1.87620000      -1.23580000      -0.87400000
H        0.98820000       1.94630000       0.03710000
H       -0.50730000       1.92150000      -0.91290000
H       -0.57760000       1.92360000       0.85800000
H        0.50580000      -0.36420000      -0.90620000
H        0.22960000      -0.23910000       2.16430000
H        0.81690000      -1.62560000       1.22970000
H        1.76270000      -0.12850000       1.29050000
H       -2.00860000      -0.22790000       0.87120000
