21
Properties=species:S:1:pos:R:3 gdb_79706=T pbc="F F F"
C       -0.23490000       1.73000000       0.18150000
C        0.00710000       0.21490000       0.12850000
C        1.02970000      -0.48250000      -0.82460000
C        2.39890000       0.03020000      -0.33330000
O        2.38460000       1.22100000       0.46830000
C        2.22450000      -0.04840000       1.11920000
C        0.78470000      -0.59310000       1.21610000
C        0.90970000      -1.73960000       0.13100000
C       -0.23460000      -2.72680000      -0.05990000
H        0.30490000       2.25670000      -0.60810000
H       -1.30160000       1.95050000       0.06570000
H        0.09710000       2.16290000       1.12740000
H       -0.95440000      -0.27820000      -0.01370000
H        0.86260000      -0.55210000      -1.90040000
H        3.32050000      -0.17890000      -0.86630000
H        2.99690000      -0.32490000       1.82930000
H        0.36940000      -0.77460000       2.20830000
H        1.84480000      -2.30610000       0.21250000
H       -1.21560000      -2.25420000      -0.15180000
H       -0.07160000      -3.32570000      -0.96280000
H       -0.28130000      -3.42080000       0.78680000
