14
Properties=species:S:1:pos:R:3 gdb_20960=T pbc="F F F"
C        0.01710000       1.47550000      -0.05370000
C        0.00550000      -0.03900000      -0.00220000
O        0.67850000      -0.51290000      -1.18600000
C        0.76840000      -1.82750000      -1.31900000
N        1.36770000      -2.38080000      -2.37040000
N        1.21330000      -3.66880000      -2.07040000
N        0.57970000      -3.91620000      -0.94260000
N        0.28230000      -2.74020000      -0.43860000
H        1.04200000       1.85590000      -0.07330000
H       -0.50320000       1.83810000      -0.94440000
H       -0.48590000       1.87800000       0.83020000
H        0.52590000      -0.42230000       0.88210000
H       -1.01370000      -0.44000000       0.01390000
H        1.55750000      -4.40690000      -2.66570000
