16
Properties=species:S:1:pos:R:3 gdb_124954=T pbc="F F F"
C        0.26640000       1.54120000       0.27990000
C        0.02910000       0.09850000       0.00590000
C       -1.09300000      -0.65200000      -0.20010000
C       -0.57380000      -1.96450000      -0.39960000
N        0.73030000      -2.00240000      -0.32710000
O        1.11950000      -0.68740000      -0.07300000
C       -2.50630000      -0.23580000      -0.21060000
C       -3.46660000      -0.71970000      -1.21960000
O       -3.47000000      -1.24970000       0.10440000
H        0.92420000       1.66610000       1.14530000
H        0.74650000       2.03180000      -0.57390000
H       -0.67630000       2.05420000       0.48130000
H       -1.12540000      -2.87730000      -0.57310000
H       -2.71410000       0.73130000       0.24780000
H       -4.32740000      -0.10610000      -1.48290000
H       -3.12020000      -1.39910000      -1.99700000
