13
Properties=species:S:1:pos:R:3 gdb_26903=T pbc="F F F"
N       -0.00010000       1.33060000       0.07940000
C       -0.04400000      -0.01340000       0.02830000
C       -1.22630000      -0.73890000      -0.00570000
O       -2.42910000      -0.05400000      -0.07380000
C       -1.09770000      -2.12350000      -0.08130000
N        0.03880000      -2.79620000      -0.06910000
C        1.20860000      -2.12670000       0.00080000
O        2.32860000      -2.52860000       0.04390000
O        1.11720000      -0.62910000       0.01770000
H        0.88100000       1.79300000      -0.07040000
H       -0.85780000       1.82970000      -0.08960000
H       -2.91050000      -0.17300000       0.75230000
H       -2.00910000      -2.71860000      -0.15420000
