20
Properties=species:S:1:pos:R:3 gdb_103044=T pbc="F F F"
C        0.99310000       0.32070000       1.14250000
C        0.02210000       0.13700000      -0.03050000
C        0.69050000      -0.49890000      -1.24600000
C        1.76980000       0.29970000      -1.78570000
C        2.67160000       0.97800000      -2.20050000
C        0.85290000      -1.97070000      -1.43450000
C       -0.30590000      -2.77670000      -0.85250000
C       -1.22450000      -1.91560000      -1.75600000
N       -0.05420000      -1.17870000      -2.35750000
H        1.38340000      -0.64370000       1.48450000
H        1.84440000       0.94330000       0.85500000
H        0.48940000       0.79950000       1.98750000
H       -0.82530000      -0.46700000       0.30010000
H       -0.38460000       1.10870000      -0.33400000
H        3.46320000       1.57360000      -2.58270000
H        1.79370000      -2.38490000      -1.78330000
H       -0.28150000      -3.82490000      -1.15510000
H       -0.44670000      -2.73120000       0.23120000
H       -1.71170000      -2.48830000      -2.54730000
H       -1.97300000      -1.27780000      -1.27860000
