15
Properties=species:S:1:pos:R:3 gdb_46560=T pbc="F F F"
O        0.09310000       0.00450000      -0.12110000
C        0.00270000       1.18610000      -0.05580000
O       -1.15440000       1.88710000      -0.15140000
C       -0.90620000       3.27320000       0.07850000
C        0.62550000       3.39110000       0.05490000
C        1.31870000       4.23720000      -1.03550000
O        1.82380000       5.15560000      -0.04700000
C        1.32630000       4.34760000       1.03610000
O        1.05230000       2.03650000       0.12440000
H       -1.39370000       3.85740000      -0.70520000
H       -1.32480000       3.55570000       1.05060000
H        2.11690000       3.69640000      -1.55710000
H        0.66320000       4.72910000      -1.76400000
H        0.67240000       4.91280000       1.71160000
H        2.12650000       3.86700000       1.61100000
