17
Properties=species:S:1:pos:R:3 gdb_23583=T pbc="F F F"
O       -0.11810000       1.36790000       0.03400000
N        0.04980000      -0.02990000      -0.02950000
C       -1.06430000      -0.62160000      -0.06480000
C       -2.54800000      -0.33420000       0.01470000
C       -2.98390000      -0.84130000      -1.38860000
C       -2.59500000      -2.30990000      -1.09890000
C       -3.50610000      -2.58850000       0.10720000
N       -2.65220000      -1.62300000       0.88500000
C       -1.46410000      -2.05750000      -0.00840000
H        0.79280000       1.67650000       0.08850000
H       -2.96330000       0.58190000       0.42410000
H       -4.05100000      -0.72540000      -1.59620000
H       -2.41350000      -0.36880000      -2.19170000
H       -2.47620000      -2.99320000      -1.94020000
H       -4.57080000      -2.34520000       0.03190000
H       -3.38250000      -3.58110000       0.54870000
H       -0.82640000      -2.87590000       0.31900000
