13
Properties=species:S:1:pos:R:3 gdb_34066=T pbc="F F F"
N       -0.08580000      -1.08350000      -0.05690000
C       -0.09150000       0.07330000      -0.07270000
C       -0.05240000       1.49580000      -0.08510000
O       -1.30460000       2.21920000       0.29450000
C       -0.53730000       3.31620000      -0.14900000
N       -0.05080000       4.15410000       0.65980000
C        1.40080000       3.74630000       0.66630000
C        1.36700000       2.34880000      -0.00240000
C        0.37480000       2.46920000      -1.09460000
H        2.08860000       4.41850000       0.13320000
H        1.68270000       3.72480000       1.72210000
H        2.25550000       1.72890000      -0.08970000
H        0.42250000       2.42200000      -2.17380000
