18
Properties=species:S:1:pos:R:3 gdb_44843=T pbc="F F F"
N       -0.07390000       1.25000000       0.02250000
C       -0.04180000      -0.01030000       0.00360000
O        1.09800000      -0.78640000       0.00940000
C        0.63900000      -2.17740000       0.01580000
C       -0.59780000      -2.07780000      -0.88790000
C       -1.22370000      -0.96960000      -0.01170000
C       -1.19590000      -1.58100000       1.40470000
C       -1.26090000      -3.07500000       1.59000000
C        0.08180000      -2.40800000       1.41840000
H        0.87420000       1.63120000       0.05180000
H        1.47110000      -2.79990000      -0.30920000
H       -0.33450000      -1.72680000      -1.88740000
H       -1.18530000      -2.99040000      -0.97320000
H       -2.15700000      -0.51380000      -0.33350000
H       -1.45610000      -0.93250000       2.23230000
H       -1.48750000      -3.40460000       2.59860000
H       -1.66940000      -3.72640000       0.82670000
H        0.77750000      -2.37090000       2.24780000
