18
Properties=species:S:1:pos:R:3 gdb_40305=T pbc="F F F"
C        0.62430000       1.52550000      -0.00040000
N        1.18400000       0.25220000      -0.45860000
C       -0.21580000       0.28950000       0.03450000
C       -0.50930000      -0.40110000       1.25960000
C       -0.77920000      -0.97390000       2.28550000
C       -1.11040000      -1.66450000       3.51210000
C       -2.24700000      -1.10250000       4.41410000
O       -2.89340000      -2.38700000       4.46760000
C       -2.02710000      -2.91990000       3.44920000
H        1.04560000       1.89900000       0.92750000
H        0.36450000       2.28900000      -0.72920000
H        1.17470000       0.21230000      -1.47490000
H       -1.00080000       0.23410000      -0.71710000
H       -0.20550000      -1.86370000       4.09320000
H       -1.95210000      -0.74390000       5.40610000
H       -2.86700000      -0.34530000       3.91820000
H       -2.54110000      -3.04040000       2.48750000
H       -1.57370000      -3.87180000       3.74540000
