16
Properties=species:S:1:pos:R:3 gdb_54085=T pbc="F F F"
N       -0.35610000       1.32060000      -0.22940000
C       -0.05260000      -0.02770000      -0.11450000
N        1.09890000      -0.56750000      -0.20220000
N       -1.19770000      -0.84210000       0.03840000
C       -2.54670000      -0.32000000      -0.11350000
C       -2.80610000       0.30560000      -1.47560000
O       -3.57730000       1.21070000      -1.64920000
C       -1.05150000      -2.19750000       0.32620000
O       -1.98900000      -2.95230000       0.44050000
H        0.44520000       1.93280000      -0.22890000
H       -1.13730000       1.68650000       0.29390000
H        1.83740000       0.12970000      -0.25200000
H       -3.20380000      -1.19290000      -0.01050000
H       -2.82610000       0.38940000       0.67420000
H       -2.24550000      -0.16990000      -2.31010000
H        0.00170000      -2.48110000       0.43290000
