20
Properties=species:S:1:pos:R:3 gdb_54194=T pbc="F F F"
C       -0.12070000       1.57260000       0.18690000
C        0.01830000       0.04950000       0.06490000
C        1.08890000      -0.50940000      -0.95060000
C        1.76640000      -1.25850000       0.20250000
C        2.20330000      -0.29460000       1.26630000
C        0.75460000      -0.68700000       1.19730000
C       -1.37580000      -0.55570000      -0.14190000
N       -1.91440000      -0.36290000      -1.38430000
O       -1.98900000      -1.12010000       0.74360000
H        0.84730000       2.04100000       0.38410000
H       -0.52560000       2.01390000      -0.73000000
H       -0.79610000       1.83140000       1.00900000
H        0.65250000      -1.17480000      -1.69940000
H        1.70290000       0.24070000      -1.46250000
H        2.15910000      -2.26560000       0.13960000
H        2.75040000      -0.73290000       2.09510000
H        2.53670000       0.70660000       1.00320000
H        0.23830000      -1.17920000       2.00970000
H       -1.37780000       0.00150000      -2.15130000
H       -2.81580000      -0.76800000      -1.57620000
