23
Properties=species:S:1:pos:R:3 gdb_65267=T pbc="F F F"
C        0.01970000       1.49580000      -0.51380000
C       -0.01470000       0.05140000      -0.05680000
C        1.19790000      -0.76520000      -0.22100000
O        0.84330000      -0.23660000       1.06150000
C       -1.39770000      -0.58110000       0.01040000
C       -1.44220000      -2.08020000       0.36560000
C       -2.87290000      -2.28940000       0.87870000
C       -3.12700000      -1.04310000       1.74780000
C       -2.31590000       0.09850000       1.07680000
H        1.04050000       1.88480000      -0.48400000
H       -0.35930000       1.58620000      -1.53780000
H       -0.60280000       2.12500000       0.13000000
H        1.12710000      -1.84680000      -0.31400000
H        2.08330000      -0.32240000      -0.67700000
H       -1.85700000      -0.45010000      -0.97870000
H       -1.19150000      -2.72570000      -0.48140000
H       -0.72380000      -2.28040000       1.16950000
H       -3.57060000      -2.31160000       0.03190000
H       -3.00090000      -3.22700000       1.42750000
H       -4.19020000      -0.80490000       1.84100000
H       -2.75180000      -1.22020000       2.76110000
H       -1.70940000       0.62600000       1.81850000
H       -2.97080000       0.84210000       0.61430000
