15
Properties=species:S:1:pos:R:3 gdb_85995=T pbc="F F F"
O        0.37910000       1.35110000       0.08970000
C        0.07500000      -0.00770000       0.00250000
C       -1.44650000      -0.36590000      -0.14960000
C       -1.29230000      -0.54290000      -1.70400000
O       -1.85200000      -1.63730000      -2.36030000
C       -1.62880000       0.72870000      -2.46010000
O       -1.45260000       1.85060000      -2.04330000
C        0.23370000      -0.67960000      -1.38800000
O        1.02200000      -1.41390000      -1.90550000
H       -0.19130000       1.82490000      -0.53900000
H        0.62070000      -0.52130000       0.79780000
H       -1.71090000      -1.31580000       0.31790000
H       -2.12980000       0.42540000       0.16240000
H       -1.13240000      -2.25100000      -2.56400000
H       -2.05660000       0.53370000      -3.46320000
