18
Properties=species:S:1:pos:R:3 gdb_90753=T pbc="F F F"
O        0.76220000       0.67610000      -0.52570000
C        0.12980000      -0.29820000       0.26050000
C       -0.05340000      -0.05850000       1.78560000
C       -1.48530000      -0.64370000       1.66390000
C       -1.41310000      -0.51220000       0.11910000
C       -1.87870000      -1.85360000      -0.46590000
N       -1.74360000      -2.74750000       0.67320000
C       -1.57360000      -2.15410000       1.89890000
O       -1.50320000      -2.73270000       2.96130000
H        0.36280000       1.52990000      -0.32720000
H        0.66920000      -1.22970000       0.06110000
H        0.63810000      -0.54950000       2.47350000
H       -0.08000000       1.01190000       2.01610000
H       -2.27620000      -0.14030000       2.22210000
H       -1.91470000       0.35130000      -0.32190000
H       -2.91620000      -1.81080000      -0.82530000
H       -1.24690000      -2.17180000      -1.30420000
H       -1.88280000      -3.74390000       0.61490000
