17
Properties=species:S:1:pos:R:3 gdb_83861=T pbc="F F F"
O        0.13310000       1.36500000      -0.01370000
C       -0.00180000      -0.01320000      -0.02010000
C       -0.46880000      -0.67690000       1.23380000
O       -0.75270000       0.23690000       2.25750000
C       -2.14390000       0.46970000       2.48490000
C       -2.81020000       1.04470000       1.22950000
C       -2.66780000       0.07740000       0.06330000
O       -3.55390000      -0.10870000      -0.74090000
C       -1.39030000      -0.68860000       0.01560000
H        0.10320000       1.62840000       0.91800000
H        0.72880000      -0.51350000      -0.64880000
H       -0.03770000      -1.61120000       1.58400000
H       -2.63450000      -0.46520000       2.79020000
H       -2.19470000       1.17050000       3.32190000
H       -3.87300000       1.24430000       1.38940000
H       -2.32010000       1.98840000       0.96130000
H       -1.45860000      -1.60990000      -0.55220000
