16
Properties=species:S:1:pos:R:3 gdb_56091=T pbc="F F F"
N       -0.02380000       1.34060000      -0.12150000
C        0.05360000       0.00880000       0.15550000
O        1.08740000      -0.53180000       0.49760000
C       -1.26660000      -0.75160000       0.01950000
C       -1.01980000      -2.26710000      -0.06640000
C       -2.24690000      -3.04480000      -0.02890000
C       -3.27030000      -3.68690000       0.00100000
C       -4.50230000      -4.42780000       0.05880000
O       -4.67740000      -5.51520000      -0.44250000
H        0.80040000       1.90470000       0.00610000
H       -0.88360000       1.79010000      -0.38210000
H       -1.88420000      -0.52590000       0.89710000
H       -1.82600000      -0.39940000      -0.85370000
H       -0.45810000      -2.50250000      -0.97770000
H       -0.36590000      -2.56020000       0.76260000
H       -5.31310000      -3.91400000       0.61550000
