18
Properties=species:S:1:pos:R:3 gdb_75251=T pbc="F F F"
C       -0.17670000       1.45680000       0.16560000
C       -0.00970000      -0.00670000      -0.05430000
N       -0.21890000      -0.64500000      -1.13160000
C        0.08480000      -2.04960000      -0.84430000
C        0.51660000      -2.08200000       0.64050000
C       -0.13490000      -3.07390000       1.62530000
O        1.13050000      -3.71340000       1.88380000
C        1.83480000      -2.76400000       1.05930000
O        0.41560000      -0.70730000       1.04210000
H        0.77160000       1.90330000       0.48070000
H       -0.51660000       1.92890000      -0.75540000
H       -0.90300000       1.63960000       0.96370000
H       -0.79770000      -2.67320000      -1.02920000
H        0.87750000      -2.40960000      -1.51060000
H       -0.55570000      -2.59510000       2.51780000
H       -0.86930000      -3.76650000       1.19500000
H        2.40020000      -3.25200000       0.25550000
H        2.50110000      -2.11410000       1.63940000
