17
Properties=species:S:1:pos:R:3 gdb_72382=T pbc="F F F"
C        0.02120000       1.53550000      -0.07290000
C        0.01520000       0.02630000      -0.01040000
N        0.35110000      -0.58020000      -1.27620000
C        0.38000000      -1.94110000      -1.35120000
N        0.12340000      -2.70040000      -0.35190000
C       -0.19620000      -1.97070000       0.84900000
C        0.62130000      -0.69430000       1.24280000
O       -0.52040000      -0.23260000       2.04070000
C       -1.11820000      -0.70630000       0.78710000
H        1.01050000       1.90980000      -0.35960000
H       -0.70530000       1.89800000      -0.80920000
H       -0.23800000       1.93990000       0.90560000
H        0.55620000      -0.00630000      -2.07620000
H        0.63700000      -2.36340000      -2.32140000
H       -0.41310000      -2.62340000       1.69390000
H        1.62010000      -0.61440000       1.67180000
H       -2.20000000      -0.64070000       0.67100000
