18
Properties=species:S:1:pos:R:3 gdb_37139=T pbc="F F F"
C       -0.04650000       1.56630000       0.00310000
C        1.45870000       1.97980000       0.01560000
C        2.11160000       0.83050000       0.73660000
O        1.45700000       0.40210000       1.93680000
C        1.20080000      -0.34130000       0.73930000
C       -0.07570000       0.00570000       0.02010000
C        2.37820000      -1.26530000       0.47680000
N        2.98560000      -0.79220000      -0.79560000
C        3.29700000      -0.08320000       0.47410000
H       -0.53320000       1.94660000       0.90380000
H       -0.57960000       1.97870000      -0.85760000
H        1.86490000       2.02050000      -1.00080000
H        1.61330000       2.95770000       0.48140000
H       -0.98410000      -0.38420000       0.48910000
H       -0.01710000      -0.40090000      -0.99530000
H        2.55780000      -2.26680000       0.84710000
H        3.77550000      -1.40660000      -1.00190000
H        4.31270000      -0.00900000       0.84200000
