17
Properties=species:S:1:pos:R:3 gdb_7763=T pbc="F F F"
C       -0.17500000       1.54000000      -0.00030000
C        0.01410000       0.01480000       0.00380000
C        0.79660000      -0.48690000      -1.21900000
C        2.30200000      -0.18320000      -1.15940000
O        2.94550000       0.00130000      -2.17820000
C        2.87090000      -0.22470000       0.17750000
C        2.07100000      -0.37180000       1.26450000
N        0.71060000      -0.43630000       1.21530000
H        0.78920000       2.05640000       0.00200000
H       -0.72780000       1.85200000      -0.89190000
H       -0.74170000       1.86510000       0.87850000
H       -0.97410000      -0.45890000       0.00630000
H        0.70040000      -1.57880000      -1.28550000
H        0.38750000      -0.06650000      -2.14030000
H        3.94630000      -0.17740000       0.28810000
H        2.49360000      -0.46430000       2.26140000
H        0.22070000      -0.30400000       2.08590000
