19
Properties=species:S:1:pos:R:3 gdb_124592=T pbc="F F F"
C       -0.08880000       1.47820000      -0.11020000
C       -0.05730000      -0.04820000       0.04090000
C        0.79010000      -0.49700000       1.23080000
N       -1.41470000      -0.58660000       0.12020000
C       -2.14300000      -0.95130000       1.20100000
C       -3.40940000      -1.28460000       0.76190000
C       -3.34260000      -1.07260000      -0.62890000
O       -4.34780000      -1.27430000      -1.50760000
N       -2.15000000      -0.64820000      -1.02360000
H        0.92080000       1.86530000      -0.27940000
H       -0.71780000       1.75880000      -0.95770000
H       -0.49190000       1.94860000       0.79290000
H        0.36270000      -0.47820000      -0.87440000
H        0.44130000      -0.04990000       2.16750000
H        0.78380000      -1.58490000       1.33960000
H        1.82330000      -0.17300000       1.08040000
H       -1.72130000      -0.95920000       2.19270000
H       -4.24410000      -1.63620000       1.34380000
H       -4.00430000      -1.05200000      -2.38190000
