17
Properties=species:S:1:pos:R:3 gdb_66111=T pbc="F F F"
C        0.09290000       1.50260000      -0.02510000
C       -0.00100000      -0.02330000       0.00850000
O        0.73240000      -0.52080000      -1.12400000
C        1.34940000      -1.76380000      -0.80450000
C        1.54180000      -1.73980000       0.69500000
O        2.11910000      -0.51090000       1.16080000
C        0.70230000      -0.66240000       1.21190000
C       -1.39560000      -0.49040000      -0.02070000
C       -2.53010000      -0.88770000      -0.02900000
H        1.14100000       1.79320000       0.07210000
H       -0.29870000       1.87710000      -0.97330000
H       -0.48740000       1.94150000       0.79090000
H        0.71340000      -2.61920000      -1.08070000
H        2.28510000      -1.82110000      -1.36910000
H        1.79190000      -2.63730000       1.25270000
H        0.23300000      -0.65320000       2.19070000
H       -3.53530000      -1.23090000      -0.04910000
