20
Properties=species:S:1:pos:R:3 gdb_11966=T pbc="F F F"
C       -0.23690000       1.52230000       0.15700000
C       -0.00520000       0.02050000       0.05020000
C       -1.23220000      -0.71860000      -0.46790000
O        1.15200000      -0.25620000      -0.80080000
C        1.88110000      -0.88000000       0.27510000
C        0.72760000      -0.63580000       1.23650000
C        0.78580000      -0.20660000       2.66910000
C        0.19040000      -1.54700000       2.29530000
H        0.66150000       2.02790000       0.51990000
H       -0.49120000       1.93290000      -0.82550000
H       -1.06220000       1.74560000       0.84210000
H       -1.50290000      -0.34520000      -1.46090000
H       -1.03460000      -1.79080000      -0.54490000
H       -2.09090000      -0.57010000       0.19620000
H        2.11360000      -1.93200000       0.06020000
H        2.81640000      -0.35000000       0.50140000
H        1.75520000      -0.19200000       3.15790000
H        0.11060000       0.57560000       3.00110000
H       -0.88530000      -1.66650000       2.37590000
H        0.75470000      -2.44440000       2.52990000
