25
Properties=species:S:1:pos:R:3 gdb_59936=T pbc="F F F"
C       -0.18500000       0.98370000       0.71780000
C       -0.08300000      -0.42420000       0.11470000
C       -1.48500000      -1.03530000      -0.04010000
C        0.64300000      -0.47500000      -1.24470000
C        2.16470000      -0.14150000      -1.31480000
C        2.96340000      -0.92000000      -0.24500000
C        2.67180000      -0.55640000      -2.71960000
C        2.41880000       1.29710000      -1.16430000
C        2.67700000       2.46960000      -1.08750000
H        0.79440000       1.42450000       0.91210000
H       -0.71900000       1.65970000       0.03950000
H       -0.73960000       0.95390000       1.66210000
H        0.46970000      -1.05720000       0.82150000
H       -2.09110000      -0.45200000      -0.74380000
H       -1.43840000      -2.06360000      -0.41450000
H       -2.01460000      -1.04990000       0.91810000
H        0.53860000      -1.49550000      -1.63640000
H        0.11880000       0.17870000      -1.95390000
H        2.75720000      -1.99270000      -0.32810000
H        4.03700000      -0.76510000      -0.38380000
H        2.70730000      -0.59670000       0.76640000
H        2.10220000      -0.05070000      -3.50460000
H        3.72630000      -0.29550000      -2.84360000
H        2.56320000      -1.63760000      -2.85560000
H        2.88480000       3.50770000      -1.00540000
