19
Properties=species:S:1:pos:R:3 gdb_84814=T pbc="F F F"
C        0.18950000       1.64790000       0.00550000
C        0.04930000       0.12600000      -0.10570000
C        0.84020000      -0.48960000      -1.23220000
C        1.55880000      -1.52520000      -0.81340000
C        1.34160000      -1.76780000       0.65390000
N        0.60670000      -0.56650000       1.07580000
C       -0.26890000      -0.72090000       2.21020000
C       -1.41770000      -1.63640000       1.98280000
N       -2.29290000      -2.35680000       1.75480000
H        1.24120000       1.92580000       0.11560000
H       -0.21560000       2.13700000      -0.88660000
H       -0.36130000       2.03480000       0.86940000
H       -1.02270000      -0.11490000      -0.24020000
H        0.78640000      -0.10930000      -2.24480000
H        2.20020000      -2.15310000      -1.41870000
H        0.76500000      -2.69780000       0.81290000
H        2.27810000      -1.87310000       1.22030000
H        0.29820000      -1.09930000       3.06830000
H       -0.66920000       0.25440000       2.50750000
