13
Properties=species:S:1:pos:R:3 gdb_131594=T pbc="F F F"
O        0.00560000       1.39800000       0.00930000
C       -0.01480000      -0.00210000       0.00300000
C       -1.45760000      -0.47660000       0.01280000
O       -2.41350000       0.25940000       0.02400000
C       -1.66540000      -1.95370000       0.00780000
N       -0.69710000      -2.83470000      -0.00410000
O       -1.29820000      -4.05040000      -0.00470000
N       -2.66840000      -3.93360000       0.00720000
C       -2.90640000      -2.65440000       0.01480000
H        0.92400000       1.68270000       0.00270000
H        0.47140000      -0.44270000      -0.88390000
H        0.48600000      -0.45080000       0.87770000
H       -3.90880000      -2.25820000       0.02490000
