20
Properties=species:S:1:pos:R:3 gdb_15940=T pbc="F F F"
C       -0.05580000       1.52480000       0.03670000
C       -0.13980000      -0.00430000      -0.04940000
C        0.67980000      -0.55640000      -1.19090000
C        0.23640000      -0.32300000      -2.66160000
C        0.51790000      -1.82680000      -2.97430000
C        0.95550000      -2.06180000      -1.50440000
C        2.41970000      -1.70570000      -1.21250000
O        2.10300000      -0.30720000      -1.02570000
H        0.98440000       1.84200000       0.15080000
H       -0.45430000       1.99660000      -0.86780000
H       -0.62610000       1.90300000       0.89000000
H        0.21730000      -0.44960000       0.88730000
H       -1.18260000      -0.32230000      -0.17700000
H       -0.81520000      -0.04240000      -2.77020000
H        0.85410000       0.40490000      -3.19130000
H       -0.37960000      -2.38450000      -3.25120000
H        1.28730000      -2.02640000      -3.72540000
H        0.51360000      -2.89590000      -0.95930000
H        2.82820000      -2.14710000      -0.29390000
H        3.13440000      -1.86600000      -2.03050000
