19
Properties=species:S:1:pos:R:3 gdb_56534=T pbc="F F F"
C       -0.06710000       1.68260000      -0.11270000
C       -0.04730000       0.14230000      -0.03530000
C        0.57190000      -0.34670000       1.27650000
C       -1.49790000      -0.33130000      -0.14700000
O       -2.09960000      -0.89540000       0.73090000
C        0.72410000      -0.45280000      -1.26450000
O        0.11840000      -0.09310000      -2.50480000
C        2.14430000      -0.09740000      -1.24980000
C        3.29900000       0.23770000      -1.27380000
H        0.95480000       2.07360000      -0.12890000
H       -0.58620000       2.03390000      -1.01010000
H       -0.58030000       2.10330000       0.75670000
H       -0.04020000      -0.02720000       2.12280000
H        0.62020000      -1.43950000       1.30760000
H        1.58310000       0.04820000       1.39930000
H       -1.98010000      -0.09740000      -1.11850000
H        0.63670000      -1.54540000      -1.20980000
H        0.48740000       0.75310000      -2.77850000
H        4.32520000       0.51220000      -1.29380000
