15
Properties=species:S:1:pos:R:3 gdb_125013=T pbc="F F F"
C        0.05990000       1.51480000       0.01240000
C       -0.04040000       0.03370000      -0.04280000
C       -1.08770000      -0.83500000       0.05270000
N       -2.44070000      -0.57670000       0.29300000
C       -0.46950000      -2.12080000      -0.07470000
N        0.84060000      -2.01980000      -0.23390000
O        1.10450000      -0.67100000      -0.22530000
C       -1.13910000      -3.36780000      -0.03940000
C       -1.78020000      -4.38610000      -0.00600000
H        0.93100000       1.81990000       0.59970000
H        0.15970000       1.96080000      -0.98440000
H       -0.83530000       1.92880000       0.48410000
H       -2.82350000       0.15550000      -0.29080000
H       -3.00260000      -1.41360000       0.19630000
H       -2.31850000      -5.30120000       0.02480000
