17
Properties=species:S:1:pos:R:3 gdb_52664=T pbc="F F F"
C       -0.04070000       1.48560000       0.01370000
C       -0.02970000       0.03060000      -0.00020000
C       -0.00390000      -1.17360000       0.00170000
C       -0.03590000      -2.63320000      -0.04910000
O       -1.35970000      -3.14220000      -0.13080000
C        0.83350000      -3.16400000      -1.23480000
O        2.15990000      -2.66480000      -1.16610000
C        0.80180000      -4.62570000      -1.28410000
C        0.83750000      -5.82710000      -1.28050000
H        0.88150000       1.88940000      -0.41790000
H       -0.88030000       1.88200000      -0.56760000
H       -0.13050000       1.87340000       1.03420000
H        0.38390000      -3.05240000       0.87420000
H       -1.84930000      -2.57440000      -0.73590000
H        0.41020000      -2.75150000      -2.15860000
H        2.63800000      -3.19690000      -0.52040000
H        0.85100000      -6.88910000      -1.29440000
