16
Properties=species:S:1:pos:R:3 gdb_4171=T pbc="F F F"
O       -0.10870000       1.28180000       0.22840000
N       -0.02710000      -0.11730000       0.33250000
C       -1.11630000      -0.67040000      -0.00370000
C       -2.50830000      -0.24030000      -0.43320000
C       -2.95380000      -1.73880000      -0.30860000
C       -1.49310000      -2.11480000       0.00460000
C       -0.65870000      -3.25300000      -0.45980000
N       -1.05020000      -3.13560000       0.95180000
H        0.76560000       1.56010000       0.52130000
H       -2.99530000       0.46750000       0.24210000
H       -2.54710000       0.16940000      -1.44630000
H       -3.62870000      -1.92930000       0.52820000
H       -3.37120000      -2.18190000      -1.21480000
H       -1.12830000      -4.07360000      -0.99640000
H        0.36750000      -3.03680000      -0.74500000
H       -0.27640000      -2.76350000       1.49950000
