21
Properties=species:S:1:pos:R:3 gdb_112877=T pbc="F F F"
C        0.25830000       1.31510000       0.24360000
C       -0.03620000      -0.18410000       0.14830000
C       -1.53140000      -0.51560000      -0.06400000
C       -1.83310000      -2.00270000      -0.31450000
C       -2.44870000      -2.50880000       1.01270000
C       -1.50940000      -3.33530000       1.88150000
O       -2.84810000      -1.32420000       1.73440000
C       -2.35600000      -0.18670000       1.18160000
O       -2.56480000       0.89130000       1.66390000
H        1.32580000       1.48850000       0.40980000
H       -0.02350000       1.82670000      -0.68350000
H       -0.30240000       1.77590000       1.05950000
H        0.52030000      -0.61860000      -0.69100000
H        0.32590000      -0.69410000       1.05020000
H       -1.90420000       0.11290000      -0.87870000
H       -2.54970000      -2.12040000      -1.13100000
H       -0.93870000      -2.57270000      -0.57920000
H       -3.36750000      -3.07490000       0.83170000
H       -0.57170000      -2.80210000       2.06800000
H       -1.97520000      -3.55810000       2.84500000
H       -1.27310000      -4.28120000       1.38360000
