18
Properties=species:S:1:pos:R:3 gdb_88749=T pbc="F F F"
O       -0.09780000       1.50670000       0.25990000
C        0.10950000       0.14690000       0.07260000
C       -0.34480000      -0.84630000       1.11520000
C       -1.08750000      -0.73650000      -0.20130000
N       -2.33890000      -0.01720000      -0.18290000
C       -3.28200000      -0.21260000      -1.25380000
C       -3.61110000      -0.69000000       0.13710000
C       -3.66690000      -2.15680000       0.37380000
O       -4.46080000      -2.67970000       1.11500000
H       -1.05990000       1.62700000       0.25320000
H        1.03020000      -0.05510000      -0.46590000
H        0.24210000      -1.74050000       1.29430000
H       -0.83920000      -0.43600000       1.98930000
H       -0.98760000      -1.54580000      -0.92260000
H       -3.78470000       0.67100000      -1.63650000
H       -3.05460000      -0.97350000      -2.00010000
H       -4.29600000      -0.11200000       0.75100000
H       -2.92300000      -2.75590000      -0.19610000
