20
Properties=species:S:1:pos:R:3 gdb_70009=T pbc="F F F"
C       -0.20250000       1.54960000       0.04100000
C        0.15850000       0.09870000      -0.01410000
N       -0.69090000      -0.96000000       0.63860000
C        0.73890000      -0.84710000       1.00420000
C        1.59130000      -1.53950000      -0.09220000
C        1.51210000      -2.94780000      -0.69740000
C        1.47540000      -2.62830000      -2.23350000
C        0.76290000      -1.27330000      -2.29990000
C        0.83970000      -0.70330000      -1.10390000
H        0.64910000       2.17720000      -0.24050000
H       -1.02720000       1.77890000      -0.64400000
H       -0.51530000       1.83660000       1.05080000
H       -1.21600000      -0.48710000       1.37710000
H        1.03140000      -0.65100000       2.02950000
H        2.62840000      -1.19180000       0.01620000
H        2.33420000      -3.61440000      -0.42130000
H        0.56720000      -3.41930000      -0.40980000
H        2.49040000      -2.58470000      -2.65570000
H        0.93850000      -3.39510000      -2.80280000
H        0.23090000      -0.92680000      -3.17810000
