18
Properties=species:S:1:pos:R:3 gdb_79148=T pbc="F F F"
O        0.04930000       1.45010000       0.22130000
C       -0.03600000       0.06320000       0.00650000
C       -1.40780000      -0.59600000      -0.06340000
C       -2.04810000      -0.43970000      -1.39040000
C       -1.62560000       0.69110000      -2.31660000
C       -0.11990000       0.39660000      -2.54120000
O        0.74400000       1.53280000      -2.47230000
C        0.22330000      -0.55670000      -1.39720000
N       -0.98220000      -1.46910000      -1.23960000
H        0.42180000       1.83970000      -0.58180000
H        0.57300000      -0.46110000       0.75340000
H       -1.94580000      -1.01600000       0.78110000
H       -3.04360000      -0.85960000      -1.49470000
H       -2.19140000       0.67110000      -3.25220000
H       -1.75760000       1.67230000      -1.85210000
H        0.02470000      -0.11960000      -3.50000000
H        0.48830000       2.15680000      -3.15880000
H        1.16060000      -1.09470000      -1.53210000
