19
Properties=species:S:1:pos:R:3 gdb_53344=T pbc="F F F"
C        0.36090000       1.63300000      -0.48860000
C        0.21950000       0.20430000      -0.25070000
C        0.10950000      -0.97870000      -0.04930000
C       -0.01890000      -2.40540000       0.18270000
O        0.01410000      -2.79250000       1.58920000
C       -1.20140000      -3.56130000       1.46010000
C       -2.45630000      -2.77640000       1.90150000
C       -2.62310000      -2.25000000       0.43910000
C       -1.39850000      -3.09120000      -0.00690000
H        1.38120000       1.88840000      -0.79500000
H       -0.31880000       1.97220000      -1.27810000
H        0.13060000       2.20710000       0.41550000
H        0.77460000      -2.93940000      -0.35920000
H       -1.07160000      -4.59560000       1.78970000
H       -3.27910000      -3.41780000       2.22950000
H       -2.25700000      -2.02850000       2.67160000
H       -3.55570000      -2.56440000      -0.03400000
H       -2.50810000      -1.17290000       0.29980000
H       -1.50300000      -3.74570000      -0.87090000
