13
Properties=species:S:1:pos:R:3 gdb_27705=T pbc="F F F"
C       -0.01710000       1.40360000       0.09000000
C        0.01750000      -0.07380000      -0.04490000
N       -0.00190000      -0.77910000      -1.14310000
C        0.04750000      -2.08230000      -0.71960000
O        0.04540000      -3.10930000      -1.56740000
C        0.09600000      -2.12810000       0.64830000
O        0.07590000      -0.80740000       1.07770000
C        0.15610000      -3.16400000       1.58860000
N        0.20570000      -4.03190000       2.35640000
H        0.87540000       1.76530000       0.61010000
H       -0.06400000       1.85310000      -0.90150000
H       -0.88880000       1.71840000       0.67220000
H        0.00490000      -2.74620000      -2.46170000
