19
Properties=species:S:1:pos:R:3 gdb_41342=T pbc="F F F"
C        0.01390000       1.49240000      -0.16240000
O        1.45530000       1.46780000       0.09290000
C        1.31440000       0.19510000       0.73900000
C        2.19000000      -1.04300000       0.61320000
C        1.24280000      -2.03590000       1.39930000
C        0.15080000      -1.11690000       2.04070000
C        0.93090000       0.18080000       2.24390000
O       -0.83960000      -0.72000000       1.05290000
C       -0.04540000      -0.03930000       0.09320000
H       -0.52230000       2.10650000       0.56960000
H       -0.20390000       1.83670000      -1.17660000
H        2.34600000      -1.34660000      -0.42470000
H        3.16630000      -0.93890000       1.09590000
H        0.78320000      -2.77910000       0.74370000
H        1.78820000      -2.57050000       2.18130000
H       -0.38070000      -1.55880000       2.88230000
H        1.79810000       0.09410000       2.90330000
H        0.29980000       1.01310000       2.55630000
H       -0.01900000      -0.59580000      -0.84990000
