16
Properties=species:S:1:pos:R:3 gdb_126001=T pbc="F F F"
C       -0.25910000       1.55590000       0.04340000
C       -0.03680000       0.04990000      -0.01420000
C        0.76500000      -0.50190000      -1.26870000
N        1.75730000      -0.98000000      -0.28360000
N        2.89360000      -1.62390000      -0.04090000
N        2.99980000      -1.58820000       1.28170000
C        1.94170000      -0.93860000       1.83880000
O        1.82090000      -0.77410000       3.16980000
C        1.11470000      -0.53320000       0.81080000
H        0.67680000       2.09930000      -0.11920000
H       -0.98030000       1.87160000      -0.71740000
H       -0.65200000       1.84770000       1.02180000
H       -0.98060000      -0.48440000       0.12840000
H        0.28840000      -1.30650000      -1.83170000
H        1.15850000       0.26030000      -1.94460000
H        2.59490000      -1.19310000       3.56800000
