20
Properties=species:S:1:pos:R:3 gdb_26406=T pbc="F F F"
C        0.03570000       1.52710000      -0.07090000
C        0.05250000       0.00270000       0.09190000
C        0.73310000      -0.40530000       1.40410000
C       -1.38200000      -0.56570000      -0.00850000
C       -1.43590000      -2.05610000      -0.09970000
C       -1.96700000      -2.96920000       0.75000000
O       -1.77110000      -4.21970000       0.22550000
C       -1.11760000      -3.98840000      -0.93330000
N       -0.88830000      -2.74370000      -1.18740000
H        1.04950000       1.93890000      -0.03150000
H       -0.40970000       1.82290000      -1.02660000
H       -0.54510000       2.00220000       0.72930000
H        0.62400000      -0.42770000      -0.74010000
H        0.75000000      -1.49210000       1.52760000
H        1.76700000      -0.04680000       1.43780000
H        0.20660000       0.02160000       2.26700000
H       -1.97080000      -0.23360000       0.85580000
H       -1.86400000      -0.14540000      -0.90000000
H       -2.48430000      -2.91970000       1.69250000
H       -0.85810000      -4.85290000      -1.52440000
