19
Properties=species:S:1:pos:R:3 gdb_40950=T pbc="F F F"
C        0.00760000       1.35060000      -0.37460000
C        1.45950000       1.51070000       0.10980000
C        1.24610000       0.13490000       0.79680000
C        2.11400000      -0.98690000       0.22750000
O        1.93420000      -2.21000000       0.91070000
C        2.33640000      -2.13470000       2.26200000
C        1.80830000      -0.91520000       2.96320000
C        1.28860000       0.11170000       2.29460000
O       -0.13020000       0.08550000       0.30060000
H       -0.70450000       2.09510000       0.00150000
H       -0.12530000       1.25590000      -1.45950000
H        2.22260000       1.51760000      -0.67190000
H        1.64230000       2.34140000       0.79370000
H        1.84360000      -1.17000000      -0.81590000
H        3.17190000      -0.66860000       0.26600000
H        1.96080000      -3.04380000       2.74520000
H        3.44070000      -2.16400000       2.34290000
H        1.86500000      -0.91110000       4.04900000
H        0.86930000       0.96890000       2.81500000
