24
Properties=species:S:1:pos:R:3 gdb_12280=T pbc="F F F"
C       -0.07970000       1.61960000       0.08500000
C        0.08260000       0.10470000      -0.08560000
C        0.69970000      -0.56170000       1.13820000
C       -0.10270000      -0.62290000       2.46740000
C        0.52640000      -2.01590000       2.73850000
C       -0.30150000      -3.08890000       3.43090000
C        0.86570000      -2.11840000       1.21140000
C       -0.12200000      -2.92800000       0.37270000
H        0.88760000       2.10370000       0.26110000
H       -0.52420000       2.07690000      -0.80450000
H       -0.72550000       1.85520000       0.93790000
H       -0.89630000      -0.34190000      -0.29900000
H        0.70890000      -0.09780000      -0.96510000
H        1.67600000      -0.10020000       1.33440000
H        0.05940000       0.16450000       3.20840000
H       -1.18030000      -0.70080000       2.28020000
H        1.46400000      -1.87960000       3.29020000
H       -1.25570000      -3.26040000       2.92220000
H        0.23150000      -4.04590000       3.47070000
H       -0.52820000      -2.79580000       4.46240000
H        1.87880000      -2.47500000       0.99640000
H       -1.16150000      -2.62790000       0.54130000
H        0.08350000      -2.81010000      -0.69640000
H       -0.04760000      -3.99540000       0.60650000
