18
Properties=species:S:1:pos:R:3 gdb_30372=T pbc="F F F"
C       -0.27180000       1.42630000       0.11380000
N       -0.18020000      -0.01970000       0.11460000
C        0.61830000      -0.60390000       0.92770000
C        0.70940000      -2.06300000       0.92730000
C        1.53880000      -2.69720000       1.77020000
N        2.32700000      -1.97670000       2.65990000
C        3.22770000      -2.65770000       3.57250000
C        2.21210000      -0.61060000       2.62840000
N        1.44760000       0.07010000       1.85820000
H        0.38040000       1.92460000       0.83930000
H       -0.03470000       1.80030000      -0.89090000
H       -1.31110000       1.72020000       0.31200000
H        0.09180000      -2.61530000       0.23130000
H        1.64780000      -3.77410000       1.81450000
H        3.97700000      -3.24040000       3.02530000
H        3.74600000      -1.91630000       4.18320000
H        2.67770000      -3.33140000       4.23880000
H        2.85090000      -0.09280000       3.34480000
