19
Properties=species:S:1:pos:R:3 gdb_99950=T pbc="F F F"
C        0.36370000       1.33810000       0.31420000
C        0.24920000      -0.13480000      -0.08810000
C        0.57850000      -0.40840000      -1.57970000
C       -0.39860000       0.26250000      -2.54280000
O        1.87520000       0.06970000      -1.91580000
C        0.50620000      -1.93970000      -1.76390000
O       -0.51480000      -2.53120000      -2.03040000
C        1.75880000      -2.65560000      -1.54010000
C        2.78370000      -3.25310000      -1.32980000
H        1.33840000       1.74120000       0.02720000
H       -0.40760000       1.95050000      -0.16130000
H        0.25060000       1.44620000       1.39690000
H        0.93960000      -0.73150000       0.52450000
H       -0.75590000      -0.51850000       0.12070000
H       -0.39620000       1.34360000      -2.39230000
H       -0.09860000       0.06090000      -3.57410000
H       -1.40660000      -0.12650000      -2.39150000
H        2.52440000      -0.41220000      -1.38890000
H        3.67840000      -3.80090000      -1.15580000
