20
Properties=species:S:1:pos:R:3 gdb_112856=T pbc="F F F"
O       -0.08280000       1.42830000      -0.06440000
C        0.00100000       0.00960000      -0.06110000
C       -1.41360000      -0.54400000       0.03810000
C       -2.32280000      -0.16540000      -1.15490000
C       -3.33960000      -1.32690000      -1.32720000
O       -3.74700000      -1.53730000      -2.66650000
C       -2.63930000      -2.52780000      -0.71070000
N       -1.27260000      -2.68240000      -1.26860000
C       -1.47200000      -2.06520000       0.06750000
H        0.79810000       1.78170000      -0.21710000
H        0.46900000      -0.37010000      -0.98210000
H        0.60290000      -0.34890000       0.79100000
H       -1.85630000      -0.17420000       0.97250000
H       -2.81300000       0.79930000      -1.01920000
H       -1.72390000      -0.09740000      -2.06810000
H       -4.26180000      -1.12240000      -0.77160000
H       -2.95840000      -1.83420000      -3.13750000
H       -3.20460000      -3.41670000      -0.45070000
H       -0.97260000      -3.64590000      -1.14480000
H       -1.11830000      -2.60510000       0.94090000
