22
Properties=species:S:1:pos:R:3 gdb_117163=T pbc="F F F"
C        0.05750000       1.58310000       0.00140000
C        0.00370000       0.05310000      -0.04830000
N        0.66170000      -0.51560000      -1.22470000
C        2.11170000      -0.59100000      -1.20630000
C       -0.10510000      -0.72930000      -2.34540000
O       -1.30420000      -0.53350000      -2.36390000
C        0.64110000      -1.25050000      -3.58280000
O       -0.27490000      -1.40540000      -4.62390000
C        0.32680000      -1.87580000      -5.80570000
H        1.08810000       1.95320000       0.00770000
H       -0.45890000       2.00770000      -0.86370000
H       -0.43460000       1.95000000       0.90760000
H        0.48060000      -0.37540000       0.84120000
H       -1.03470000      -0.27920000      -0.07460000
H        2.47870000      -1.34540000      -1.90340000
H        2.59400000       0.36580000      -1.45190000
H        2.44290000      -0.88500000      -0.20530000
H        1.44420000      -0.54390000      -3.85910000
H        1.13600000      -2.20920000      -3.34270000
H        1.09630000      -1.18130000      -6.18040000
H        0.79760000      -2.86210000      -5.66340000
H       -0.46250000      -1.96610000      -6.55530000
