13
Properties=species:S:1:pos:R:3 gdb_56120=T pbc="F F F"
N       -0.10910000       1.17520000       0.02580000
C       -0.18590000      -0.15920000       0.26160000
O        0.22920000      -0.74450000       1.23100000
O       -0.77350000      -0.78160000      -0.81350000
C       -0.95730000      -2.16590000      -0.64790000
C       -2.18680000      -2.46760000       0.19680000
O       -2.90370000      -1.64040000       0.68940000
C       -2.44690000      -3.91360000       0.36400000
N       -2.63240000      -5.04980000       0.47000000
H        0.14590000       1.75570000       0.80600000
H       -0.66840000       1.57710000      -0.70710000
H       -1.09270000      -2.60010000      -1.64420000
H       -0.08940000      -2.63710000      -0.17220000
