21
Properties=species:S:1:pos:R:3 gdb_118976=T pbc="F F F"
O       -0.11260000       1.48030000       0.05940000
C        0.02420000       0.06720000       0.13270000
C       -1.36320000      -0.53550000      -0.05850000
C       -1.37430000      -2.06400000       0.00660000
O       -0.45770000      -2.63250000      -0.91500000
C       -1.20410000      -2.65420000       1.43330000
C       -2.74900000      -2.77680000       1.54080000
C       -2.80840000      -2.66780000      -0.00550000
O       -3.79030000      -1.86960000      -0.62290000
H        0.76240000       1.86870000       0.14920000
H        0.70470000      -0.31260000      -0.64230000
H        0.44080000      -0.24000000       1.10520000
H       -2.04000000      -0.12100000       0.69560000
H       -1.76360000      -0.21160000      -1.02700000
H       -0.64120000      -2.25710000      -1.78400000
H       -0.71140000      -3.62730000       1.37980000
H       -0.69530000      -2.03610000       2.17490000
H       -3.15730000      -3.67830000       2.00230000
H       -3.20050000      -1.89840000       2.00960000
H       -2.75040000      -3.66580000      -0.46340000
H       -4.63820000      -2.31900000      -0.55310000
