18
Properties=species:S:1:pos:R:3 gdb_57371=T pbc="F F F"
C       -0.29200000       1.47680000      -0.11640000
C        0.02820000      -0.01650000       0.04060000
C        0.87830000      -0.29190000       1.27990000
O       -1.16750000      -0.76480000       0.19190000
C        0.74960000      -0.52650000      -1.22880000
C        0.55070000      -1.90730000      -1.70710000
O       -0.12220000      -0.80580000      -2.33150000
C        1.98470000       0.14980000      -1.58420000
N        2.97330000       0.69840000      -1.82460000
H        0.61720000       2.07920000      -0.19680000
H       -0.89260000       1.64830000      -1.01620000
H       -0.86310000       1.81660000       0.75100000
H        0.35240000       0.06440000       2.16940000
H        1.05350000      -1.36530000       1.39210000
H        1.84240000       0.21920000       1.21690000
H       -1.67530000      -0.64960000      -0.62180000
H        1.32160000      -2.37830000      -2.31170000
H       -0.08440000      -2.55830000      -1.11390000
