17
Properties=species:S:1:pos:R:3 gdb_105018=T pbc="F F F"
N        0.03820000       0.57000000       0.81040000
C        0.52670000      -0.68630000       0.23570000
C       -0.32490000      -1.79150000       0.70370000
N       -0.98930000      -2.67100000       1.04910000
C        0.64680000      -0.67560000      -1.30430000
C        1.84110000       0.08500000      -1.85210000
O        1.81630000       1.46160000      -1.49730000
C       -0.01630000      -1.67090000      -2.15960000
O       -0.58300000      -0.36620000      -1.97560000
H        0.66900000       1.30790000       0.50820000
H       -0.87020000       0.77510000       0.40110000
H        1.52900000      -0.86790000       0.64470000
H        2.77100000      -0.31930000      -1.43830000
H        1.87320000      -0.04100000      -2.94260000
H        1.04830000       1.84790000      -1.93430000
H        0.38190000      -1.86750000      -3.15420000
H       -0.57390000      -2.48530000      -1.70530000
