21
Properties=species:S:1:pos:R:3 gdb_38213=T pbc="F F F"
C        0.01720000       1.62720000       0.00890000
C        1.53760000       1.33380000       0.03280000
C        1.16350000       0.07810000       0.90080000
C       -0.07740000       0.07220000      -0.03170000
C       -1.43870000      -0.61200000      -0.06960000
C       -1.73680000      -0.53400000      -1.56610000
C       -0.63920000      -0.30160000      -2.29520000
C        0.57540000      -0.25970000      -1.39800000
C        1.73570000       0.78060000      -1.40220000
H       -0.35650000       2.02760000       0.95530000
H       -0.38840000       2.19750000      -0.83100000
H        2.25930000       2.06920000       0.39040000
H        1.82580000      -0.79320000       0.87790000
H        0.94410000       0.35790000       1.93440000
H       -1.38950000      -1.66090000       0.25930000
H       -2.19650000      -0.11910000       0.54930000
H       -2.73400000      -0.68150000      -1.96740000
H       -0.60800000      -0.24400000      -3.37780000
H        1.01090000      -1.27020000      -1.37210000
H        1.61880000       1.57040000      -2.15100000
H        2.71170000       0.31200000      -1.55740000
