21
Properties=species:S:1:pos:R:3 gdb_115329=T pbc="F F F"
C       -1.02430000       0.97780000      -0.25090000
C       -0.05900000      -0.20000000      -0.12050000
C        1.18240000      -0.14160000      -1.02730000
O        1.70700000       1.17960000      -0.99280000
C        2.09800000      -1.16640000      -0.35030000
O        1.79290000      -1.14540000       1.04020000
C        0.55860000      -0.43580000       1.27550000
C        0.89770000       0.80760000       2.10050000
O        1.59690000       0.43500000       3.27420000
H       -0.52310000       1.92820000      -0.06000000
H       -1.44340000       1.01940000      -1.26110000
H       -1.85900000       0.87650000       0.44990000
H       -0.58940000      -1.12040000      -0.39470000
H        0.94570000      -0.43360000      -2.06040000
H        2.53860000       1.18880000      -1.47640000
H        1.91860000      -2.17210000      -0.76020000
H        3.15980000      -0.92830000      -0.49020000
H       -0.07670000      -1.08820000       1.88780000
H        1.48000000       1.50660000       1.48480000
H       -0.01900000       1.31280000       2.42280000
H        2.30140000      -0.15230000       2.97350000
