18
Properties=species:S:1:pos:R:3 gdb_78432=T pbc="F F F"
C       -0.06090000       1.43240000      -0.00660000
C        0.04930000      -0.07790000       0.03840000
C        1.40900000      -0.66830000      -0.22250000
C        0.78380000      -0.68050000       1.19700000
C        0.73670000      -2.22380000       1.16320000
N       -0.56520000      -2.87700000       0.98220000
C       -0.62910000      -3.14830000      -0.25780000
O        0.40030000      -2.84100000      -1.09670000
C        1.38160000      -2.19500000      -0.24830000
H        0.84140000       1.91010000       0.39010000
H       -0.20170000       1.78580000      -1.03340000
H       -0.91150000       1.77940000       0.58890000
H       -0.82640000      -0.59420000      -0.34640000
H        2.22280000      -0.06230000      -0.60300000
H        1.06540000      -0.09170000       2.06170000
H        1.30820000      -2.69660000       1.96410000
H       -1.46520000      -3.63460000      -0.74990000
H        2.34570000      -2.68030000      -0.40150000
