18
Properties=species:S:1:pos:R:3 gdb_79756=T pbc="F F F"
O        0.17840000       1.37170000       0.13380000
C        0.02770000      -0.00860000      -0.03580000
C       -1.33190000      -0.70560000      -0.03930000
N       -2.63010000      -0.08870000      -0.25290000
C       -2.70300000       1.37770000      -0.41970000
C       -2.62400000       0.49730000      -1.61300000
C       -1.27890000       0.22070000      -2.28750000
C       -0.48940000      -0.65320000      -1.29640000
O        0.12610000      -1.80930000      -1.78430000
H        0.95680000       1.65030000      -0.36070000
H        0.78420000      -0.60490000       0.47890000
H       -1.37740000      -1.61430000       0.55150000
H       -3.66810000       1.79330000      -0.14070000
H       -1.84380000       1.97630000      -0.15460000
H       -3.51950000       0.32740000      -2.20550000
H       -1.41930000      -0.36490000      -3.19960000
H       -0.75040000       1.14150000      -2.55880000
H        0.99010000      -1.56980000      -2.13700000
