23
Properties=species:S:1:pos:R:3 gdb_121829=T pbc="F F F"
C       -0.10810000       1.57760000       0.10790000
C       -0.06370000       0.05350000      -0.04530000
O        0.50460000      -0.54570000       1.13580000
C       -1.49250000      -0.52190000      -0.07700000
O       -2.19330000      -0.24890000       1.11760000
C        0.70830000      -0.40470000      -1.29660000
C        2.18490000       0.00130000      -1.32890000
C        2.92150000      -0.56950000      -2.53380000
O        4.26990000      -0.13060000      -2.46750000
H        0.88660000       1.98980000       0.30990000
H       -0.48200000       2.05200000      -0.80510000
H       -0.77460000       1.84390000       0.93110000
H        1.24140000      -0.00190000       1.42930000
H       -2.06040000      -0.07250000      -0.89800000
H       -1.42780000      -1.60600000      -0.26190000
H       -1.58650000      -0.50600000       1.82390000
H        0.63730000      -1.49860000      -1.34720000
H        0.19610000      -0.01310000      -2.18590000
H        2.29330000       1.09150000      -1.35130000
H        2.69020000      -0.35380000      -0.42300000
H        2.85840000      -1.67000000      -2.52100000
H        2.43610000      -0.22770000      -3.46300000
H        4.74270000      -0.49490000      -3.22130000
