17
Properties=species:S:1:pos:R:3 gdb_33063=T pbc="F F F"
O       -0.08190000       1.43120000      -0.11280000
C        0.03160000       0.02010000      -0.08660000
C       -1.37970000      -0.54000000       0.12310000
C       -1.42800000      -2.02770000       0.12730000
C       -1.68210000      -2.90210000       1.10910000
O       -1.59380000      -4.20150000       0.63320000
C       -1.28220000      -4.14440000      -0.71140000
N       -1.14060000      -5.11320000      -1.51580000
N       -1.15210000      -2.80290000      -1.00580000
H        0.79800000       1.80500000      -0.21680000
H        0.45390000      -0.36830000      -1.02710000
H        0.68370000      -0.32480000       0.73000000
H       -1.76830000      -0.16580000       1.07440000
H       -2.02820000      -0.13550000      -0.66470000
H       -1.92340000      -2.78110000       2.15010000
H       -1.29450000      -5.99860000      -1.04130000
H       -1.03680000      -2.47520000      -1.94790000
