20
Properties=species:S:1:pos:R:3 gdb_6861=T pbc="F F F"
C        0.04700000       1.49570000       0.06140000
C       -0.06710000      -0.02560000      -0.02120000
C       -1.54780000      -0.44130000       0.00680000
C        0.66830000      -0.56150000      -1.27050000
C        0.97540000      -2.05490000      -1.13960000
O        1.64880000      -2.31270000       0.08420000
C        0.87160000      -1.88320000       1.17020000
O        0.61830000      -0.50450000       1.15560000
H        1.09750000       1.79130000       0.12510000
H       -0.39820000       1.96470000      -0.82150000
H       -0.46840000       1.86880000       0.95130000
H       -2.09180000       0.04960000      -0.80630000
H       -1.69050000      -1.51880000      -0.10710000
H       -1.99880000      -0.13780000       0.95580000
H        0.07640000      -0.37050000      -2.17280000
H        1.61660000      -0.02320000      -1.37260000
H        0.05290000      -2.65690000      -1.19300000
H        1.63850000      -2.39290000      -1.94050000
H       -0.07310000      -2.45710000       1.19770000
H        1.44890000      -2.08210000       2.07600000
