18
Properties=species:S:1:pos:R:3 gdb_54948=T pbc="F F F"
C        0.51590000       1.48940000       0.16280000
C       -0.35160000       0.25240000       0.01910000
O       -1.08400000      -0.13090000       0.90180000
C       -0.24900000      -0.44190000      -1.31390000
N       -0.69330000      -1.83670000      -1.40740000
C       -1.48790000      -0.82510000      -2.11730000
C       -2.88880000      -0.59320000      -1.58550000
C       -1.34170000      -0.73670000      -3.55030000
C       -1.23790000      -0.68250000      -4.74770000
H        1.57610000       1.21810000       0.09290000
H        0.31560000       2.19560000      -0.65120000
H        0.32330000       1.96610000       1.12410000
H        0.60070000      -0.13800000      -1.92050000
H       -0.09800000      -2.33960000      -2.06120000
H       -2.89300000      -0.68510000      -0.49980000
H       -3.25080000       0.39860000      -1.87210000
H       -3.56670000      -1.33920000      -2.01050000
H       -1.14650000      -0.63200000      -5.80470000
