16
Properties=species:S:1:pos:R:3 gdb_44347=T pbc="F F F"
O       -0.00880000      -0.06900000      -0.24440000
C        0.02000000       1.12610000      -0.08830000
C       -1.26230000       1.93430000       0.28710000
C       -1.23500000       3.36560000      -0.24220000
C       -0.46720000       4.61960000       0.14490000
C        0.95930000       4.49780000       0.75320000
C        1.01920000       3.29690000      -0.15580000
C        1.21750000       1.99430000       0.08070000
N       -0.04240000       3.76480000      -1.02800000
H       -2.13580000       1.41300000      -0.11300000
H       -1.33610000       1.88810000       1.37950000
H       -2.14680000       3.63910000      -0.77140000
H       -0.93930000       5.58390000      -0.03130000
H        1.53550000       5.37050000       0.43050000
H        1.10370000       4.32520000       1.82140000
H        1.99150000       1.63860000       0.75380000
