20
Properties=species:S:1:pos:R:3 gdb_14972=T pbc="F F F"
C       -0.01890000       1.56240000       0.02410000
C       -0.01130000       0.03280000      -0.02440000
C        0.70860000      -0.52950000      -1.24600000
C        0.82060000      -2.05950000      -1.23440000
C        1.24420000      -2.56890000      -2.58700000
C        1.18420000      -1.79850000      -3.67000000
C        0.64230000      -0.39710000      -3.61390000
O       -0.01470000      -0.10270000      -2.39790000
H        1.00010000       1.96100000       0.08620000
H       -0.48460000       1.97070000      -0.87620000
H       -0.57260000       1.92740000       0.89440000
H        0.46880000      -0.37400000       0.87420000
H       -1.04040000      -0.34750000      -0.03300000
H        1.72960000      -0.10850000      -1.29070000
H        1.54470000      -2.36770000      -0.46910000
H       -0.14210000      -2.50250000      -0.94090000
H        1.61390000      -3.58870000      -2.65370000
H        1.52360000      -2.15320000      -4.63960000
H        1.45650000       0.32860000      -3.80160000
H       -0.10140000      -0.24280000      -4.40550000
