23
Properties=species:S:1:pos:R:3 gdb_95168=T pbc="F F F"
C       -0.01770000       1.55090000      -0.02230000
C        0.00090000       0.02100000      -0.01910000
C        0.69020000      -0.53070000      -1.26790000
O        0.57470000      -1.94060000      -1.36730000
C        0.93120000      -2.66310000      -0.22450000
C        2.25120000      -2.48710000       0.48140000
C        0.95250000      -2.04950000       1.15420000
C        0.44040000      -2.87400000       2.31810000
C        0.68220000      -0.54220000       1.24180000
H        1.00020000       1.95760000      -0.05260000
H       -0.56020000       1.94400000      -0.88870000
H       -0.50090000       1.94040000       0.87990000
H       -1.03340000      -0.34830000      -0.04530000
H        0.22490000      -0.13840000      -2.17740000
H        1.74930000      -0.21980000      -1.28140000
H        0.54870000      -3.67460000      -0.32180000
H        2.75580000      -3.37580000       0.84720000
H        2.92150000      -1.70610000       0.13750000
H        0.64630000      -3.94000000       2.17600000
H        0.91760000      -2.56790000       3.25730000
H       -0.64280000      -2.75680000       2.44190000
H        1.62010000       0.00170000       1.41670000
H        0.04850000      -0.33820000       2.11230000
