14
Properties=species:S:1:pos:R:3 gdb_4597=T pbc="F F F"
C       -0.01050000       1.55440000       0.00610000
C       -0.02780000       0.05070000       0.00980000
C       -1.15910000      -0.69040000      -0.15560000
N       -1.09150000      -2.04290000      -0.13930000
C        0.10220000      -2.78370000       0.04220000
O        0.06030000      -3.99380000       0.04160000
N        1.25140000      -2.02100000       0.21000000
C        1.16280000      -0.72140000       0.19070000
H        0.62930000       1.94900000      -0.79140000
H       -1.01510000       1.95930000      -0.14510000
H        0.36960000       1.95610000       0.95220000
H       -2.14230000      -0.25590000      -0.30420000
H       -1.92220000      -2.60490000      -0.26050000
H        2.10240000      -0.18060000       0.32820000
