18
Properties=species:S:1:pos:R:3 gdb_64983=T pbc="F F F"
C       -0.17520000       1.49340000      -0.73110000
C       -0.08390000       0.19190000       0.03500000
C        1.04400000      -0.75040000      -0.26780000
N        1.02020000      -0.02480000       0.99840000
C       -1.41100000      -0.39330000       0.44540000
O       -2.44600000       0.04520000      -0.01020000
C       -1.43140000      -1.54330000       1.44590000
C       -2.47340000      -1.30160000       2.53270000
O       -2.32930000      -1.63500000       3.67800000
H        0.81710000       1.81960000      -1.05710000
H       -0.81310000       1.37880000      -1.61050000
H       -0.61550000       2.28000000      -0.11070000
H        0.90510000      -1.82500000      -0.18680000
H        1.73160000      -0.43980000      -1.05000000
H        1.65090000       0.77250000       0.96860000
H       -1.76570000      -2.43520000       0.89660000
H       -0.46270000      -1.74370000       1.90190000
H       -3.39250000      -0.79570000       2.17230000
