21
Properties=species:S:1:pos:R:3 gdb_111226=T pbc="F F F"
C       -0.02110000       1.65570000       0.01020000
C        0.11540000       0.13330000       0.13290000
C        0.65690000      -0.50540000      -1.13530000
C        0.74900000      -2.03920000      -1.34830000
C       -0.49630000      -2.79750000      -0.85870000
C       -1.73670000      -2.11750000      -1.40080000
C       -1.58740000      -1.04140000      -2.17390000
C       -0.16200000      -0.61900000      -2.45870000
O        0.61100000      -1.81820000      -2.78070000
H        0.93980000       2.12370000      -0.23100000
H       -0.72800000       1.92540000      -0.78240000
H       -0.38420000       2.09910000       0.94230000
H        0.79420000      -0.10760000       0.96210000
H       -0.85670000      -0.29920000       0.39090000
H        1.63380000      -0.07870000      -1.38510000
H        1.68210000      -2.55050000      -1.09400000
H       -0.44980000      -3.83980000      -1.20030000
H       -0.51920000      -2.83410000       0.23940000
H       -2.71140000      -2.52660000      -1.15050000
H       -2.42300000      -0.48730000      -2.58830000
H       -0.06410000       0.15300000      -3.22460000
