16
Properties=species:S:1:pos:R:3 gdb_72348=T pbc="F F F"
C       -0.00250000       1.50370000       0.03130000
C       -0.00600000      -0.00280000      -0.00350000
C       -0.63560000      -0.73490000      -1.19740000
N       -1.35820000      -1.88090000      -0.62470000
C       -1.19520000      -1.83850000       0.63220000
N       -0.45850000      -0.73980000       1.19720000
C        0.99100000      -0.76910000       0.81570000
C        1.61680000      -1.96530000       0.31570000
N        2.15570000      -2.90840000      -0.08190000
H        0.64810000       1.90500000      -0.75260000
H       -1.01330000       1.88960000      -0.13540000
H        0.34970000       1.87590000       0.99650000
H       -1.33980000      -0.07930000      -1.72220000
H        0.09020000      -1.09220000      -1.93550000
H       -1.60900000      -2.57020000       1.31830000
H        1.61700000      -0.21070000       1.50620000
