14
Properties=species:S:1:pos:R:3 gdb_14222=T pbc="F F F"
O       -0.11450000       1.32000000      -0.05360000
C        0.03080000      -0.04540000      -0.04250000
C        0.88040000      -0.90400000      -0.98090000
C        0.00710000      -2.09430000      -0.46770000
C       -1.06600000      -1.03910000       0.01610000
C       -0.17220000      -0.85220000       1.27470000
C        0.40050000      -2.20920000       1.02300000
O        0.81810000      -3.09820000       1.70980000
H        0.65430000       1.71570000       0.37330000
H        0.66820000      -0.66620000      -2.02700000
H        1.96170000      -0.96560000      -0.81510000
H       -0.17570000      -2.97120000      -1.08160000
H       -2.14190000      -0.99550000      -0.04350000
H       -0.42850000      -0.34500000       2.19490000
