19
Properties=species:S:1:pos:R:3 gdb_51655=T pbc="F F F"
O        1.05120000       0.05720000       0.48610000
C        0.63760000       1.13610000       0.18370000
O        1.34490000       2.26520000       0.35810000
C        0.74640000       3.52530000      -0.01760000
C        0.56840000       4.41430000       1.23240000
C        1.82400000       5.27110000       1.30950000
C        3.15890000       4.57580000       1.19340000
C        2.52840000       5.19660000      -0.02950000
C        1.71390000       4.29280000      -0.94380000
H       -0.35710000       1.31970000      -0.26950000
H       -0.20920000       3.31090000      -0.50830000
H       -0.30940000       5.05660000       1.09420000
H        0.39020000       3.79970000       2.12010000
H        1.77160000       6.20110000       1.86410000
H        4.01520000       5.09070000       1.61530000
H        3.19940000       3.49590000       1.27390000
H        2.99660000       6.07150000      -0.46600000
H        2.31370000       3.59400000      -1.53450000
H        1.13190000       4.90340000      -1.64400000
