18
Properties=species:S:1:pos:R:3 gdb_18704=T pbc="F F F"
O        0.46140000       0.78270000      -0.95710000
C        0.01800000      -0.17520000       0.00700000
C        0.62120000       0.09470000       1.36150000
C       -0.00160000      -0.11320000       2.52090000
C       -1.40380000      -0.64650000       2.63420000
C       -2.20900000      -0.50710000       1.35360000
C       -2.30510000       0.83410000       0.67200000
C       -1.49560000      -0.27900000       0.04130000
H        0.03470000       1.61790000      -0.73500000
H        0.42230000      -1.12480000      -0.37040000
H        1.64210000       0.46720000       1.33710000
H        0.51940000       0.08920000       3.45390000
H       -1.35950000      -1.70750000       2.92190000
H       -1.92510000      -0.14440000       3.46070000
H       -3.09990000      -1.12660000       1.31410000
H       -3.24260000       1.11220000       0.20390000
H       -1.76820000       1.66120000       1.12730000
H       -1.92470000      -0.73740000      -0.84410000
