19
Properties=species:S:1:pos:R:3 gdb_51480=T pbc="F F F"
O        0.40720000       0.03360000       0.28320000
C        0.43270000       1.22290000       0.38660000
O        1.10910000       2.01210000      -0.47500000
C        1.03240000       3.40800000      -0.23640000
C        1.89090000       4.09080000       0.79850000
C        3.07030000       3.33290000       1.39660000
C        3.86030000       2.75100000       0.19810000
C        3.50370000       3.64200000      -1.01680000
C        2.15950000       4.28140000      -0.69020000
H       -0.08330000       1.79840000       1.17840000
H        0.02730000       3.79590000      -0.37960000
H        1.42000000       4.86300000       1.39780000
H        3.68280000       4.04680000       1.95860000
H        2.76520000       2.55440000       2.10470000
H        4.93620000       2.73450000       0.39080000
H        3.54960000       1.72300000       0.00680000
H        4.23990000       4.44370000      -1.14350000
H        3.48360000       3.07170000      -1.95040000
H        1.89180000       5.19810000      -1.20460000
