20
Properties=species:S:1:pos:R:3 gdb_81243=T pbc="F F F"
C       -0.09670000       1.54610000       0.08900000
C        0.07160000       0.03860000       0.05770000
N        1.26140000      -0.55940000      -0.72550000
C        2.11330000      -0.19720000       0.51960000
C        0.82120000      -0.77320000       1.15710000
C        0.13370000      -1.43240000       2.32450000
O       -0.76490000      -2.34070000       1.64640000
C       -0.32270000      -2.66670000       0.29980000
C        0.96140000      -1.86420000       0.10390000
H        0.74040000       2.08900000       0.53260000
H       -0.23790000       1.92110000      -0.93050000
H       -0.99540000       1.79930000       0.66160000
H       -0.86750000      -0.40050000      -0.28360000
H        3.02680000      -0.79020000       0.60630000
H        2.32960000       0.86610000       0.60900000
H        0.83540000      -1.98110000       2.97010000
H       -0.48290000      -0.77580000       2.94530000
H       -0.11770000      -3.74180000       0.24760000
H       -1.13950000      -2.44460000      -0.39380000
H        1.85450000      -2.49210000       0.14150000
