22
Properties=species:S:1:pos:R:3 gdb_94555=T pbc="F F F"
C       -0.85600000       1.26200000       0.11320000
C       -0.22850000      -0.12690000       0.07240000
C        0.97300000      -0.30020000      -0.88120000
O        1.87530000      -0.56450000       0.21540000
C        0.79450000      -0.55100000       1.17760000
C        1.08940000       0.34420000       2.36450000
C       -0.01300000       0.42310000       3.39980000
C        2.50620000       0.43840000       2.80070000
N        1.85030000       1.58410000       2.13370000
H       -0.12170000       2.03780000       0.34620000
H       -1.30110000       1.49760000      -0.86010000
H       -1.65340000       1.32460000       0.85930000
H       -1.00670000      -0.87890000      -0.08010000
H        0.91340000      -1.15250000      -1.56910000
H        1.26900000       0.59320000      -1.44520000
H        0.59720000      -1.56830000       1.54790000
H       -0.22340000      -0.56700000       3.82050000
H        0.28620000       1.08680000       4.21450000
H       -0.94300000       0.81420000       2.97610000
H        2.73240000       0.58510000       3.85350000
H        3.25120000      -0.11270000       2.23560000
H        2.17030000       1.57990000       1.16610000
