17
Properties=species:S:1:pos:R:3 gdb_90938=T pbc="F F F"
C        0.03940000       1.57740000      -0.02950000
C        0.03620000       0.06070000       0.04080000
O        0.74660000      -0.46990000      -1.10290000
C        1.48630000      -1.57800000      -0.66200000
C        2.49760000      -1.35030000       0.47750000
O        2.17920000      -0.12650000       1.13500000
C        0.78160000      -0.55000000       1.22450000
C        1.15990000      -1.98190000       0.74240000
O        0.78320000      -3.19520000       1.26630000
H        1.06270000       1.94810000       0.05680000
H       -0.38110000       1.91210000      -0.98140000
H       -0.56520000       1.99840000       0.78030000
H       -0.99910000      -0.32410000       0.03190000
H        1.71830000      -2.30790000      -1.42930000
H        3.52050000      -1.70690000       0.49980000
H        0.35650000      -0.39980000       2.21750000
H        0.05240000      -3.54390000       0.74330000
