19
Properties=species:S:1:pos:R:3 gdb_61474=T pbc="F F F"
C        0.66380000      -0.28850000      -1.42400000
C        0.00130000       0.09160000      -0.08570000
C       -1.47100000      -0.37590000      -0.04620000
C       -2.22210000       0.13130000       1.19920000
N       -2.30470000       1.59480000       1.19000000
C       -3.54610000      -0.51920000       1.29950000
N       -4.60210000      -0.98550000       1.36910000
C        0.75090000      -0.45240000       1.04650000
C        1.35560000      -0.92060000       1.97480000
H        1.69940000       0.05870000      -1.45530000
H        0.66610000      -1.37370000      -1.56380000
H        0.12130000       0.16610000      -2.25880000
H       -0.00410000       1.18420000       0.00710000
H       -1.98520000      -0.01190000      -0.94380000
H       -1.51300000      -1.46930000      -0.07130000
H       -1.64350000      -0.16220000       2.08280000
H       -2.95430000       1.89920000       0.46990000
H       -2.67470000       1.93140000       2.07340000
H        1.90110000      -1.32290000       2.79250000
