14
Properties=species:S:1:pos:R:3 gdb_127187=T pbc="F F F"
C        0.03250000       1.46660000      -0.01170000
N       -0.00160000       0.00730000      -0.01190000
C       -0.04500000      -0.67740000       1.19740000
O       -0.05700000      -0.13060000       2.27300000
C        0.01020000      -0.66910000      -1.21950000
N       -0.01860000      -1.97550000      -1.33550000
O        0.00710000      -2.21870000      -2.68670000
N        0.05150000      -1.06710000      -3.40270000
C        0.05450000      -0.10020000      -2.52950000
H        0.94560000       1.83520000      -0.48980000
H       -0.83880000       1.87680000      -0.53210000
H        0.01530000       1.78450000       1.02950000
H       -0.06720000      -1.76770000       1.05560000
H        0.08660000       0.93140000      -2.83940000
