17
Properties=species:S:1:pos:R:3 gdb_105355=T pbc="F F F"
C       -0.16410000       1.20580000       0.42760000
O       -0.22620000      -0.16850000       0.08730000
C        0.51910000      -0.51880000      -1.04290000
C        2.08910000      -0.36060000      -1.05700000
C        2.18180000      -1.87560000      -1.25120000
O        1.55510000      -2.47830000      -0.11290000
C        0.72350000      -2.04950000      -1.18270000
C       -0.14400000       0.01440000      -2.31000000
O        0.42190000       0.26040000      -3.34330000
H        0.85730000       1.51290000       0.68920000
H       -0.52320000       1.85420000      -0.38540000
H       -0.80960000       1.34410000       1.29720000
H        2.42180000       0.22340000      -1.91630000
H        2.53590000       0.00210000      -0.13030000
H        2.92440000      -2.45600000      -1.78370000
H        0.05310000      -2.77350000      -1.63040000
H       -1.24670000       0.12470000      -2.19880000
