17
Properties=species:S:1:pos:R:3 gdb_7654=T pbc="F F F"
C        0.77780000       1.35970000       0.17010000
N        0.09130000       0.04440000       0.01490000
H       -0.90040000       0.19400000      -0.15540000
C        0.34780000      -0.98830000       1.12430000
C        1.18390000      -1.85480000       0.15720000
C        0.71970000      -0.93280000      -0.99160000
C        2.73530000      -1.68780000       0.43420000
O        3.38620000      -2.72500000       0.52130000
O        3.06890000      -0.47480000       0.52450000
H        1.83190000       1.11490000       0.34890000
H        0.63740000       1.93300000      -0.74900000
H        0.32750000       1.88670000       1.01430000
H        0.90380000      -0.53110000       1.94150000
H       -0.60690000      -1.39480000       1.46370000
H        0.88290000      -2.89720000       0.07690000
H       -0.05860000      -1.31300000      -1.65630000
H        1.51670000      -0.43960000      -1.54600000
