21
Properties=species:S:1:pos:R:3 gdb_40039=T pbc="F F F"
C        0.71100000       1.55320000      -0.12490000
C        1.57700000       0.33200000       0.09510000
C        0.08850000       0.19320000      -0.03550000
C       -0.85700000      -0.36000000       1.04070000
C       -1.43070000      -1.36680000      -0.00570000
C       -2.93070000      -1.24920000      -0.33980000
C       -2.95510000      -0.21030000      -1.43950000
C       -1.73670000       0.12260000      -1.86740000
C       -0.64290000      -0.60670000      -1.13160000
H        0.56810000       2.23580000       0.70730000
H        0.75100000       2.04030000      -1.09420000
H        2.19910000      -0.00790000      -0.72780000
H        2.02130000       0.18910000       1.07580000
H       -0.37650000      -0.80340000       1.91750000
H       -1.60350000       0.36420000       1.38330000
H       -1.10770000      -2.39300000       0.17410000
H       -3.36000000      -2.20040000      -0.68430000
H       -3.52340000      -0.94700000       0.53400000
H       -3.88220000       0.19610000      -1.83120000
H       -1.53120000       0.84170000      -2.65370000
H        0.00740000      -1.18450000      -1.79860000
