13
Properties=species:S:1:pos:R:3 gdb_28785=T pbc="F F F"
O        0.25580000       1.38530000       0.28640000
C        0.16340000       0.04830000       0.08120000
C        0.11780000      -0.78110000      -1.01370000
N        0.01770000      -2.12670000      -0.64010000
C        0.00700000      -2.05720000       0.65120000
O       -0.06910000      -2.95480000       1.66510000
C       -0.03030000      -2.20740000       2.82540000
C        0.06650000      -0.88820000       2.56430000
N        0.09060000      -0.78860000       1.17370000
H        0.29740000       1.82210000      -0.57000000
H        0.15080000      -0.49550000      -2.05380000
H       -0.08080000      -2.76030000       3.74650000
H        0.11850000      -0.04220000       3.22580000
