18
Properties=species:S:1:pos:R:3 gdb_78876=T pbc="F F F"
O       -0.08150000       1.45370000      -0.05990000
C       -0.07280000       0.05860000       0.05660000
C        0.14590000      -0.64250000       1.38940000
C       -1.18550000      -0.82470000       2.05010000
N       -0.74220000      -1.79230000       0.98540000
C       -1.39070000      -0.75490000       0.00690000
C       -2.23980000      -0.23090000       1.15690000
C       -3.71510000      -0.39220000       1.31680000
C       -3.10250000       0.99670000       1.27680000
H       -0.71030000       1.79400000       0.58610000
H        0.63670000      -0.31560000      -0.68560000
H        1.07950000      -0.81350000       1.91390000
H       -1.28040000      -1.13090000       3.08630000
H       -1.83270000      -1.08740000      -0.93070000
H       -4.29390000      -0.71860000       0.45890000
H       -4.08970000      -0.75110000       2.27000000
H       -3.07320000       1.56360000       2.20220000
H       -3.27190000       1.59740000       0.38880000
