20
Properties=species:S:1:pos:R:3 gdb_106925=T pbc="F F F"
C        0.04950000       1.53040000      -0.30440000
C       -0.01370000       0.05810000       0.12050000
C       -1.42360000      -0.49200000       0.13370000
C       -1.99570000      -1.10480000      -1.08470000
N       -1.55610000      -1.96700000       0.05410000
C       -2.67970000      -2.35490000       0.86230000
O       -3.02680000      -3.49200000       1.00820000
C       -3.34120000      -1.11800000       1.49250000
C       -2.41030000       0.06020000       1.17070000
H        1.08340000       1.88700000      -0.31440000
H       -0.36360000       1.67050000      -1.30900000
H       -0.51480000       2.17270000       0.37980000
H        0.59350000      -0.55450000      -0.55410000
H        0.42060000      -0.05970000       1.12170000
H       -3.06410000      -1.02310000      -1.27180000
H       -1.39020000      -1.21870000      -1.97880000
H       -4.33900000      -1.01290000       1.05390000
H       -3.49050000      -1.28560000       2.56110000
H       -1.85020000       0.36630000       2.06000000
H       -2.94320000       0.94290000       0.80680000
