23
Properties=species:S:1:pos:R:3 gdb_58889=T pbc="F F F"
C       -0.21200000       1.53650000      -0.12240000
C       -0.05840000       0.01290000       0.01620000
C       -1.42340000      -0.66720000       0.17290000
C        0.76670000      -0.53840000      -1.13010000
C        0.22300000      -0.84960000      -2.50540000
C        0.81950000      -1.95250000      -1.64050000
C        2.29100000      -2.27420000      -1.83880000
C        2.94770000      -0.87640000      -1.82930000
O        2.08510000      -0.02350000      -1.08250000
H        0.76360000       2.01680000      -0.22620000
H       -0.80890000       1.78630000      -1.00700000
H       -0.71560000       1.95860000       0.75350000
H        0.52700000      -0.18520000       0.92460000
H       -2.06650000      -0.48660000      -0.69540000
H       -1.33110000      -1.74880000       0.31040000
H       -1.94200000      -0.26490000       1.04860000
H       -0.85350000      -0.86120000      -2.63520000
H        0.76770000      -0.50510000      -3.37840000
H        0.16340000      -2.72620000      -1.25990000
H        2.64860000      -2.88320000      -1.00150000
H        2.50820000      -2.81670000      -2.76420000
H        3.93260000      -0.85970000      -1.35390000
H        3.06550000      -0.49580000      -2.85360000
