22
Properties=species:S:1:pos:R:3 gdb_123102=T pbc="F F F"
C       -0.08180000       1.51010000       0.10930000
C       -0.02570000      -0.00210000      -0.02910000
O       -1.33990000      -0.51120000       0.05050000
C       -1.40570000      -1.91390000      -0.06610000
C       -2.86360000      -2.34100000       0.03010000
C       -3.03220000      -3.85770000      -0.06580000
C       -4.50130000      -4.27240000      -0.15460000
N       -4.76540000      -5.53710000       0.29130000
O       -5.37000000      -3.54640000      -0.59570000
H        0.92390000       1.93700000       0.05140000
H       -0.69120000       1.94510000      -0.68780000
H       -0.52440000       1.79070000       1.06930000
H        0.43550000      -0.28540000      -0.99120000
H        0.60200000      -0.44040000       0.76630000
H       -0.97290000      -2.24160000      -1.02890000
H       -0.80590000      -2.39310000       0.72920000
H       -3.27960000      -1.97600000       0.97530000
H       -3.44180000      -1.86670000      -0.76700000
H       -2.53800000      -4.23420000      -0.97300000
H       -2.54800000      -4.36430000       0.77820000
H       -4.03930000      -6.16430000       0.58860000
H       -5.69680000      -5.89900000       0.16740000
