22
Properties=species:S:1:pos:R:3 gdb_58045=T pbc="F F F"
C       -0.16230000       1.49650000       0.00160000
C        0.07790000      -0.01580000       0.05550000
C        0.70150000      -0.54210000      -1.24190000
C        0.92570000      -0.43050000       1.28790000
C        2.25080000       0.19370000       1.29680000
C        3.34460000       0.69190000       1.30020000
N        0.20900000      -0.08590000       2.52460000
C       -0.69970000      -1.10860000       3.03710000
C        0.59320000      -0.82710000       3.71930000
H        0.77770000       2.03370000      -0.16170000
H       -0.84200000       1.74690000      -0.81920000
H       -0.59720000       1.85420000       0.93750000
H       -0.89080000      -0.51370000       0.19720000
H        1.68620000      -0.09470000      -1.41220000
H        0.82680000      -1.63040000      -1.21790000
H        0.06770000      -0.29730000      -2.09990000
H        1.07850000      -1.52580000       1.22660000
H        4.31010000       1.13410000       1.30770000
H       -1.63700000      -0.74490000       3.44770000
H       -0.77690000      -2.04640000       2.48810000
H        1.37900000      -1.57440000       3.62360000
H        0.62240000      -0.25320000       4.64070000
