25
Properties=species:S:1:pos:R:3 gdb_95284=T pbc="F F F"
C       -0.09900000       1.55970000      -0.04920000
C        0.12560000       0.04800000      -0.01680000
C        1.02210000      -0.49680000      -1.14580000
C        1.35420000      -1.93100000      -0.69200000
C        1.51770000      -1.83010000       0.83350000
C        2.85740000      -1.22180000       1.33480000
C        2.13650000       0.10790000       1.68420000
C        0.76010000      -0.51890000       1.27730000
C       -0.22700000      -0.65480000       2.42840000
H        0.84380000       2.11100000       0.03170000
H       -0.57510000       1.86250000      -0.98800000
H       -0.74860000       1.88900000       0.76890000
H       -0.85610000      -0.43960000      -0.11820000
H        0.53680000      -0.45780000      -2.12610000
H        1.93740000       0.10530000      -1.22110000
H        0.51430000      -2.59400000      -0.93250000
H        2.24050000      -2.34470000      -1.18490000
H        1.22330000      -2.75140000       1.34320000
H        3.28110000      -1.73870000       2.19940000
H        3.64000000      -1.14420000       0.57380000
H        2.19760000       0.40650000       2.73430000
H        2.45030000       0.96160000       1.07810000
H       -0.61780000       0.32160000       2.73970000
H       -1.08180000      -1.28090000       2.14600000
H        0.24400000      -1.11130000       3.30620000
