21
Properties=species:S:1:pos:R:3 gdb_64287=T pbc="F F F"
C       -0.26100000       1.62100000       0.09820000
C        0.03970000       0.12150000       0.04960000
C       -1.24280000      -0.70680000      -0.13550000
C        1.06900000      -0.24200000      -1.04600000
O        1.66360000      -1.47500000      -0.63570000
C        1.77370000      -1.44940000       0.77120000
C        2.86100000      -0.52440000       1.35900000
O        1.87400000       0.46680000       1.72540000
C        0.78260000      -0.38290000       1.29890000
H        0.63860000       2.18640000       0.35240000
H       -0.63520000       1.97430000      -0.86910000
H       -1.02610000       1.84480000       0.84910000
H       -1.77310000      -0.39730000      -1.04230000
H       -1.01700000      -1.77380000      -0.22820000
H       -1.92460000      -0.57350000       0.71100000
H        0.62060000      -0.40420000      -2.02980000
H        1.82930000       0.54760000      -1.13540000
H        1.74100000      -2.47490000       1.14050000
H        3.38210000      -0.92130000       2.23910000
H        3.59460000      -0.14550000       0.63830000
H        0.11860000      -0.63260000       2.13310000
