18
Properties=species:S:1:pos:R:3 gdb_12783=T pbc="F F F"
C        0.15530000       1.53070000       0.10370000
C       -0.17360000       0.04540000      -0.08420000
C        0.60280000      -0.57790000      -1.22770000
O        2.05630000      -0.55540000      -1.04330000
C        2.14130000      -1.94270000      -1.37270000
C        1.42680000      -2.77660000      -0.34110000
C        0.64760000      -2.09500000      -1.44770000
O       -0.12910000      -2.76670000      -2.36980000
H        1.22250000       1.66240000       0.30260000
H       -0.09210000       2.10730000      -0.79430000
H       -0.40500000       1.95690000       0.94100000
H        0.03570000      -0.50240000       0.84150000
H       -1.24390000      -0.08170000      -0.29600000
H        0.36270000      -0.07870000      -2.17700000
H        2.95720000      -2.27720000      -2.00150000
H        1.52300000      -3.84840000      -0.49100000
H        1.38370000      -2.44950000       0.69380000
H       -0.84240000      -3.21170000      -1.89960000
