17
Properties=species:S:1:pos:R:3 gdb_33549=T pbc="F F F"
N        0.33860000      -1.29280000      -0.27630000
C        0.16040000      -0.15800000      -0.14720000
C       -0.06160000       1.27340000       0.01110000
C       -0.25080000       1.77280000       1.47330000
O        0.76740000       2.77130000       1.30330000
C        1.22000000       2.16610000       0.07720000
C       -1.07630000       1.76660000      -1.01420000
C       -2.51440000       1.91190000      -0.68760000
N       -1.66960000       3.09960000      -0.90140000
H       -1.22220000       2.20750000       1.72970000
H        0.01850000       1.02150000       2.22470000
H        2.15130000       1.60390000       0.21040000
H        1.32770000       2.89430000      -0.73170000
H       -0.80140000       1.49660000      -2.03190000
H       -3.26210000       1.73520000      -1.45460000
H       -2.83950000       1.67080000       0.32130000
H       -1.41820000       3.53760000      -0.01790000
