16
Properties=species:S:1:pos:R:3 gdb_16093=T pbc="F F F"
C        0.03020000      -1.21740000      -0.04250000
C        0.02700000      -0.01460000      -0.00140000
C        0.00340000       1.41560000       0.05090000
C        0.38140000       2.23540000      -1.18440000
C        1.27070000       2.29010000       0.02080000
C        1.06850000       3.42140000       1.02660000
C       -0.35760000       3.23090000       1.49980000
C       -0.91690000       2.13060000       0.99530000
H        0.03810000      -2.27830000      -0.07620000
H        0.74740000       1.68060000      -2.04120000
H       -0.25160000       3.08520000      -1.41860000
H        2.23970000       1.81170000      -0.04770000
H        1.77840000       3.34890000       1.86100000
H        1.22530000       4.40850000       0.57250000
H       -0.85130000       3.93570000       2.15910000
H       -1.91900000       1.77110000       1.19480000
