19
Properties=species:S:1:pos:R:3 gdb_97209=T pbc="F F F"
C       -0.18830000       1.37550000      -0.06590000
N       -0.17220000      -0.07440000      -0.15690000
C        0.60810000      -0.65400000      -0.95880000
O        1.46970000      -0.05400000      -1.83060000
C        2.24280000      -1.05360000      -2.52790000
C        1.44060000      -2.35940000      -2.42220000
C        0.69080000      -2.13940000      -1.12230000
C        0.77000000      -2.99160000       0.09760000
N       -0.44480000      -2.96420000      -0.72630000
H        0.58100000       1.87020000      -0.66920000
H       -1.17060000       1.74770000      -0.38030000
H       -0.05960000       1.67110000       0.98140000
H        2.38680000      -0.70160000      -3.55130000
H        3.22270000      -1.13670000      -2.04270000
H        0.73080000      -2.45080000      -3.25050000
H        2.07950000      -3.24420000      -2.41850000
H        1.33170000      -3.92160000       0.05920000
H        0.75630000      -2.48480000       1.05810000
H       -1.12350000      -2.34150000      -0.28530000
