21
Properties=species:S:1:pos:R:3 gdb_113798=T pbc="F F F"
C       -0.27730000       1.42540000      -0.53250000
O       -0.29940000       0.33930000       0.37260000
C       -1.33850000      -0.55030000       0.12110000
C       -1.16250000      -1.60880000      -0.94000000
C       -1.21260000      -1.98890000       0.53130000
C       -0.04200000      -2.64070000       1.21570000
C        0.23990000      -4.05640000       0.75410000
C        1.02350000      -1.87130000       1.88030000
O       -0.02140000      -2.48060000       2.64410000
H        0.56070000       2.06510000      -0.24680000
H       -0.13830000       1.08560000      -1.56860000
H       -1.20720000       2.01130000      -0.48100000
H       -2.32880000      -0.10310000       0.22710000
H       -1.98720000      -1.87500000      -1.59200000
H       -0.18250000      -1.63840000      -1.40610000
H       -2.15310000      -2.42970000       0.85650000
H        0.53850000      -4.07510000      -0.29880000
H        1.03660000      -4.50160000       1.35530000
H       -0.65540000      -4.67960000       0.85830000
H        2.00630000      -2.33080000       1.99260000
H        1.00780000      -0.78800000       1.84580000
