18
Properties=species:S:1:pos:R:3 gdb_79950=T pbc="F F F"
C       -0.47900000       1.46720000      -0.18230000
C       -0.09710000       0.00630000      -0.13410000
C        0.63560000      -0.72350000      -1.21800000
C        1.42220000       0.09540000      -2.17950000
C        2.40780000       0.73590000      -1.55470000
C        2.42760000       0.35530000      -0.07750000
C        2.49110000       1.48440000       0.84850000
C        2.59880000       2.40800000       1.60990000
N        1.25050000      -0.54000000       0.12540000
H        0.19260000       2.06570000      -0.79840000
H       -1.49180000       1.55610000      -0.59160000
H       -0.48440000       1.89450000       0.82410000
H       -0.83320000      -0.59620000       0.39760000
H        0.33750000      -1.73140000      -1.49780000
H        1.19540000       0.15170000      -3.23730000
H        3.11220000       1.43690000      -1.98500000
H        3.31550000      -0.26540000       0.12060000
H        2.68060000       3.22330000       2.28560000
