21
Properties=species:S:1:pos:R:3 gdb_121950=T pbc="F F F"
C        0.06750000       1.32620000      -0.12780000
O        0.02150000      -0.07550000      -0.02570000
C       -1.29680000      -0.58010000      -0.01060000
C       -1.22780000      -2.09890000       0.06810000
C       -2.61720000      -2.75010000       0.10740000
O       -3.40300000      -2.39360000      -1.01820000
C       -2.50190000      -4.26490000       0.20430000
C       -3.57440000      -5.14760000      -0.26040000
O       -2.40230000      -4.92650000      -1.06440000
H        1.11990000       1.62090000      -0.13790000
H       -0.41130000       1.68620000      -1.05250000
H       -0.42970000       1.81640000       0.72510000
H       -1.85240000      -0.17700000       0.85560000
H       -1.84490000      -0.27400000      -0.91450000
H       -0.67010000      -2.48060000      -0.79590000
H       -0.66340000      -2.38490000       0.96420000
H       -3.16410000      -2.38390000       0.98700000
H       -3.08810000      -2.95600000      -1.74050000
H       -1.81080000      -4.63890000       0.96020000
H       -3.66430000      -6.15030000       0.15240000
H       -4.48700000      -4.70640000      -0.65250000
