23
Properties=species:S:1:pos:R:3 gdb_97658=T pbc="F F F"
C        0.00080000       1.60370000       0.00730000
C       -0.00940000       0.06390000       0.00910000
C       -1.35650000      -0.49900000       0.00630000
C       -2.47770000      -0.94440000      -0.00310000
C       -3.82850000      -1.44510000       0.02110000
C       -4.80430000      -0.59500000       0.82380000
C       -4.35650000      -2.14200000      -1.22890000
C       -4.05300000      -2.95660000      -0.00180000
C       -2.90450000      -3.93770000       0.01850000
H        1.02850000       1.97960000       0.00970000
H       -0.50800000       1.99430000      -0.87820000
H       -0.51170000       1.99620000       0.89000000
H        0.54130000      -0.30430000      -0.86650000
H        0.54220000      -0.30250000       0.88500000
H       -4.86560000       0.41920000       0.41630000
H       -5.80760000      -1.03190000       0.80090000
H       -4.48890000      -0.51900000       1.86940000
H       -5.39160000      -1.96010000      -1.49940000
H       -3.67880000      -2.22820000      -2.07120000
H       -4.92070000      -3.27140000       0.57350000
H       -2.04400000      -3.54700000      -0.53090000
H       -2.57650000      -4.14380000       1.04320000
H       -3.19820000      -4.88940000      -0.43820000
