20
Properties=species:S:1:pos:R:3 gdb_86135=T pbc="F F F"
C       -0.12270000       1.58570000       0.00910000
C        0.14310000       0.08430000      -0.01140000
C        0.94610000      -0.47180000      -1.19910000
O        1.93320000       0.48580000      -1.54780000
C        1.58520000      -1.75380000      -0.61440000
N        1.71330000      -1.45620000       0.79680000
C        2.50620000      -2.25060000       1.70220000
C        0.92730000      -0.41310000       1.21120000
O        0.84760000       0.00880000       2.34680000
H        0.80470000       2.14580000      -0.12020000
H       -0.81330000       1.87640000      -0.78800000
H       -0.56020000       1.85740000       0.97280000
H       -0.81550000      -0.45370000       0.01800000
H        0.30790000      -0.70450000      -2.06160000
H        2.43750000       0.14330000      -2.29190000
H        0.95330000      -2.63890000      -0.79100000
H        2.56490000      -1.94940000      -1.06920000
H        3.56040000      -2.26110000       1.39890000
H        2.42010000      -1.80160000       2.69340000
H        2.15050000      -3.28870000       1.74570000
