11
Properties=species:S:1:pos:R:3 gdb_4237=T pbc="F F F"
F       -0.23290000       0.07370000      -0.13020000
C       -0.07300000       1.40160000       0.02510000
F        1.24040000       1.63140000       0.16740000
F       -0.46030000       1.99540000      -1.11220000
C       -0.85150000       1.91690000       1.20460000
C       -2.15600000       1.29360000       1.53040000
N       -0.98880000       1.08530000       2.40140000
H       -0.68080000       2.97440000       1.38440000
H       -2.94370000       1.90840000       1.95380000
H       -2.49230000       0.47190000       0.90620000
H       -0.59280000       0.16450000       2.22520000
