17
Properties=species:S:1:pos:R:3 gdb_24119=T pbc="F F F"
C       -0.07810000       1.54490000       0.20310000
C       -0.12300000       0.03300000       0.36140000
C       -1.30900000      -0.72720000      -0.10000000
N       -0.02340000      -0.84180000      -0.81330000
C        1.28820000       2.07260000      -0.06600000
C        1.88590000       2.71170000      -1.10170000
N        3.22130000       2.95510000      -0.79630000
C        3.36350000       2.45860000       0.38640000
O        2.24260000       1.90460000       0.90710000
H       -0.72600000       1.84910000      -0.62690000
H       -0.48460000       2.01250000       1.11010000
H        0.43010000      -0.33970000       1.22080000
H       -1.62520000      -1.62530000       0.42280000
H       -2.11820000      -0.16860000      -0.56510000
H       -0.04370000      -0.28400000      -1.66460000
H        1.45430000       3.01930000      -2.04120000
H        4.24840000       2.43080000       1.00260000
