25
Properties=species:S:1:pos:R:3 gdb_60400=T pbc="F F F"
C       -0.00340000       1.55130000      -0.23030000
C        0.02230000       0.05460000       0.08210000
O        0.59920000      -0.19150000       1.36510000
C       -1.36180000      -0.59340000      -0.04830000
C       -1.35150000      -2.11040000       0.18180000
C       -2.73910000      -2.71620000       0.13070000
C       -3.37820000      -3.10460000      -1.18460000
C       -3.00510000      -4.17210000      -0.18220000
C       -1.90680000      -5.17240000      -0.47200000
H        0.99380000       1.98280000      -0.10850000
H       -0.34200000       1.73780000      -1.25470000
H       -0.68900000       2.07730000       0.44660000
H        0.70940000      -0.44170000      -0.61590000
H        0.05350000       0.26200000       2.01760000
H       -2.04200000      -0.11380000       0.67280000
H       -1.77070000      -0.37190000      -1.04240000
H       -0.70610000      -2.57660000      -0.57240000
H       -0.88290000      -2.31400000       1.15160000
H       -3.42000000      -2.28170000       0.86080000
H       -4.42570000      -2.87950000      -1.35470000
H       -2.76090000      -3.02800000      -2.07570000
H       -3.84210000      -4.60100000       0.36430000
H       -1.09920000      -4.73610000      -1.06650000
H       -1.46440000      -5.56170000       0.45200000
H       -2.30080000      -6.02550000      -1.03580000
