16
Properties=species:S:1:pos:R:3 gdb_75995=T pbc="F F F"
C       -0.03020000       1.41810000      -0.04460000
N       -0.01890000      -0.02390000      -0.01560000
C       -1.10770000      -0.99760000      -0.08290000
C       -1.88400000      -0.94160000      -1.32200000
N       -2.48000000      -0.87210000      -2.30970000
C       -0.00230000      -2.13150000      -0.02730000
N       -0.03210000      -3.13330000      -1.05490000
C        1.00840000      -0.94200000      -0.05580000
O        2.20160000      -0.81190000      -0.10140000
H        1.01020000       1.75050000      -0.06250000
H       -0.53990000       1.79290000      -0.93930000
H       -0.52190000       1.83330000       0.84250000
H       -1.78990000      -0.97480000       0.77420000
H       -0.00790000      -2.61930000       0.95110000
H        0.16270000      -2.73930000      -1.97000000
H        0.66480000      -3.84690000      -0.87480000
