17
Properties=species:S:1:pos:R:3 gdb_97416=T pbc="F F F"
C        0.24640000       1.30260000      -0.12960000
N       -0.22030000      -0.00860000       0.27200000
C        0.56420000      -0.71640000       0.94940000
O        0.17830000      -1.96100000       1.34210000
C        1.08840000      -2.64930000       2.16740000
C        0.75190000      -4.15560000       2.31080000
N        2.08400000      -4.43340000       1.75760000
C        2.41650000      -3.13000000       1.49680000
O        3.34750000      -2.59660000       0.95710000
H        1.26290000       1.54460000       0.21990000
H        0.23250000       1.37650000      -1.22280000
H       -0.44130000       2.06710000       0.24940000
H        1.57830000      -0.43460000       1.26190000
H        1.24490000      -2.12830000       3.11870000
H        0.60020000      -4.51770000       3.33100000
H       -0.07760000      -4.46180000       1.66820000
H        2.54010000      -5.29880000       1.50900000
