18
Properties=species:S:1:pos:R:3 gdb_51585=T pbc="F F F"
O       -0.61680000       0.29740000       0.11700000
C       -0.08300000       1.37510000       0.13390000
C        1.34530000       1.63770000      -0.30880000
C        1.40540000       2.76310000      -1.32630000
C        1.44220000       4.21340000      -0.89560000
C        2.64070000       3.60170000      -1.57250000
C        3.94100000       3.37560000      -0.81510000
C        4.77350000       4.58020000      -0.78690000
N        5.42240000       5.53600000      -0.77490000
H       -0.62570000       2.28300000       0.48400000
H        1.91160000       1.90620000       0.59350000
H        1.75850000       0.70320000      -0.70110000
H        0.82770000       2.55610000      -2.22350000
H        0.85180000       4.94220000      -1.43850000
H        1.52320000       4.41560000       0.16840000
H        2.80080000       3.89000000      -2.60680000
H        3.75170000       3.07250000       0.21970000
H        4.52070000       2.56710000      -1.27670000
