19
Properties=species:S:1:pos:R:3 gdb_74367=T pbc="F F F"
C       -0.02190000       1.53820000       0.07480000
C        0.00380000       0.03810000      -0.01050000
C        0.02070000      -0.61950000      -1.16940000
C        0.00470000      -2.13460000      -1.25780000
O       -0.29040000      -2.75520000      -0.01420000
C        0.43520000      -2.17760000       1.05830000
C        0.01030000      -0.72840000       1.29190000
C       -0.97910000      -2.59200000      -2.24180000
C       -1.76440000      -2.94330000      -3.07960000
H        0.85600000       1.91900000       0.61230000
H       -0.04600000       2.00080000      -0.91540000
H       -0.90190000       1.88250000       0.63340000
H        0.04080000      -0.09300000      -2.11910000
H        1.00250000      -2.47450000      -1.59980000
H        0.23130000      -2.80380000       1.93100000
H        1.51790000      -2.22090000       0.85390000
H        0.69520000      -0.25230000       2.00640000
H       -0.98670000      -0.69410000       1.75220000
H       -2.46580000      -3.26070000      -3.81090000
