21
Properties=species:S:1:pos:R:3 gdb_100994=T pbc="F F F"
C       -0.01490000       1.65130000       0.12980000
C        0.01080000       0.13000000       0.00230000
C        1.02050000      -0.45080000      -1.02450000
O        1.67480000      -1.23530000      -0.01170000
C        0.89550000      -0.61800000       1.03340000
C       -1.37750000      -0.51610000      -0.11240000
O       -2.13850000      -0.37860000       1.09490000
C       -2.23460000      -0.04710000      -1.29110000
O       -3.45280000      -0.75960000      -1.32980000
H        0.99800000       2.03950000       0.27240000
H       -0.43040000       2.13270000      -0.76110000
H       -0.60420000       1.97930000       0.99490000
H        0.60580000      -1.07560000      -1.82540000
H        1.69320000       0.29510000      -1.46970000
H        1.50810000       0.03610000       1.66870000
H        0.38240000      -1.35250000       1.66300000
H       -1.24080000      -1.59920000      -0.21580000
H       -2.27440000       0.56280000       1.25480000
H       -2.41310000       1.03990000      -1.21280000
H       -1.72020000      -0.22500000      -2.24190000
H       -3.74340000      -0.82220000      -0.41060000
