16
Properties=species:S:1:pos:R:3 gdb_98006=T pbc="F F F"
C       -0.09170000       1.44160000       0.04750000
N       -0.00660000       0.00050000      -0.07820000
C        0.71210000      -0.60850000      -1.06690000
O        1.34090000      -0.01210000      -1.92430000
C        0.66170000      -2.06060000      -1.00760000
C        0.66310000      -3.27310000      -1.01770000
C        0.65840000      -4.63020000      -1.02070000
C        0.65450000      -5.84100000      -1.02360000
C        0.65180000      -7.29160000      -1.03110000
H        0.30930000       1.78100000       1.00910000
H        0.50080000       1.87490000      -0.75870000
H       -1.12730000       1.78800000      -0.04320000
H       -0.49080000      -0.58680000       0.58090000
H       -0.16460000      -7.67860000      -1.65120000
H        1.59210000      -7.68580000      -1.43210000
H        0.52270000      -7.69270000      -0.01970000
