19
Properties=species:S:1:pos:R:3 gdb_60810=T pbc="F F F"
C       -0.23090000       1.28820000      -1.36910000
C       -0.12150000       0.44030000      -0.08720000
N       -1.34380000      -0.09820000       0.47410000
C       -2.52980000       0.71630000       0.61050000
C       -1.48970000      -1.48830000       0.11780000
N       -2.42470000      -1.74000000      -0.94010000
H       -2.10820000      -1.33760000      -1.81740000
H       -2.55350000      -2.73720000      -1.07770000
C        0.67660000      -0.83050000      -0.36210000
O        1.82190000      -0.92050000      -0.69620000
O       -0.13770000      -1.90360000      -0.20220000
H        0.77350000       1.55200000      -1.71100000
H       -0.73420000       0.74470000      -2.17590000
H       -0.78610000       2.21100000      -1.18040000
H        0.42140000       1.03040000       0.66410000
H       -3.01280000       0.98380000      -0.34110000
H       -3.26890000       0.17990000       1.21310000
H       -2.27290000       1.64000000       1.14040000
H       -1.80120000      -2.09670000       0.97660000
