18
Properties=species:S:1:pos:R:3 gdb_94958=T pbc="F F F"
C        0.09910000       1.31750000      -0.27520000
C       -0.10110000      -0.11780000       0.21550000
O        0.19270000      -1.08210000      -0.80090000
C        1.58370000      -1.38060000      -0.75280000
C        1.96450000      -1.31860000       0.73110000
C        0.83170000      -0.47610000       1.37030000
O        0.37640000      -1.65290000       2.11440000
C        1.38480000      -2.43170000       1.58190000
N        1.67620000      -3.63530000       1.76680000
H        1.15020000       1.52980000      -0.49810000
H       -0.48110000       1.47970000      -1.18670000
H       -0.23550000       2.03380000       0.48210000
H       -1.14580000      -0.27740000       0.49990000
H        1.72920000      -2.37070000      -1.19070000
H        2.17330000      -0.65120000      -1.32840000
H        3.00410000      -1.06060000       0.92710000
H        1.07320000       0.34250000       2.04900000
H        1.03080000      -4.08150000       2.42080000
