18
Properties=species:S:1:pos:R:3 gdb_101077=T pbc="F F F"
O       -0.12530000       1.37940000      -0.36420000
C        0.03780000      -0.03030000      -0.21550000
C       -1.34470000      -0.56940000       0.16040000
O       -2.29800000      -0.11160000      -0.78080000
C       -1.37260000      -2.09900000       0.17210000
C       -2.66290000      -2.78950000      -0.12260000
N       -1.58220000      -2.79870000      -1.11810000
C       -0.43480000      -2.70510000       1.08500000
C        0.33640000      -3.18030000       1.87600000
H        0.65230000       1.73660000      -0.80150000
H        0.36570000      -0.49260000      -1.15750000
H        0.76660000      -0.27400000       0.56670000
H       -1.59610000      -0.20500000       1.16900000
H       -2.02490000       0.78940000      -1.00020000
H       -2.85990000      -3.74680000       0.34960000
H       -3.52690000      -2.15930000      -0.30540000
H       -1.79480000      -2.07470000      -1.80440000
H        1.01760000      -3.61610000       2.56420000
