15
Properties=species:S:1:pos:R:3 gdb_111943=T pbc="F F F"
O       -0.07540000       1.47280000       0.00430000
C        0.04380000       0.06300000       0.09390000
C       -1.37100000      -0.51410000      -0.00250000
C       -2.06820000      -0.25020000      -1.31540000
C       -2.50660000      -1.35660000      -1.93860000
C       -2.17090000      -2.56350000      -1.16310000
O       -2.41000000      -3.72240000      -1.39580000
C       -1.39210000      -2.04200000       0.08330000
O       -0.88160000      -2.72750000       0.92600000
H        0.80610000       1.85580000       0.04210000
H        0.66580000      -0.34240000      -0.71910000
H        0.48560000      -0.25720000       1.04750000
H       -1.94790000      -0.09160000       0.83180000
H       -2.17930000       0.76210000      -1.68680000
H       -3.03460000      -1.39500000      -2.88270000
