16
Properties=species:S:1:pos:R:3 gdb_56805=T pbc="F F F"
O        1.10500000       1.38180000      -0.45380000
C        0.26260000       0.38230000       0.03750000
C       -0.04600000      -0.63300000      -0.99900000
N       -0.31450000      -1.41680000      -1.80370000
C        0.88510000      -0.28660000       1.25270000
N        2.03980000       0.08180000       1.65310000
C        2.36790000      -0.77180000       2.81040000
C        1.04590000      -1.51200000       3.16820000
N        0.27730000      -1.31620000       1.92850000
H        1.93260000       1.28130000       0.05140000
H       -0.70100000       0.82670000       0.33570000
H        3.15430000      -1.47790000       2.51860000
H        2.75480000      -0.17150000       3.63720000
H        1.19250000      -2.57320000       3.38220000
H        0.53900000      -1.05170000       4.02660000
H       -0.72780000      -1.39980000       1.93540000
