19
Properties=species:S:1:pos:R:3 gdb_56592=T pbc="F F F"
C        1.18870000       1.74150000       0.31780000
C        0.25930000       0.55840000       0.01420000
C        0.60220000      -0.03330000      -1.38300000
O        1.82890000      -0.73530000      -1.40750000
C       -0.50830000      -0.86730000      -1.89180000
N       -1.38780000      -1.51670000      -2.26750000
C        0.36640000      -0.49520000       1.10290000
C       -0.61520000      -0.55350000       2.21330000
N       -0.57580000      -1.62420000       1.20440000
H        2.23570000       1.42730000       0.27280000
H        1.04690000       2.55160000      -0.40440000
H        0.99200000       2.13870000       1.31720000
H       -0.77830000       0.91390000      -0.03370000
H        0.72830000       0.79510000      -2.08930000
H        1.72270000      -1.54410000      -0.89240000
H        1.39200000      -0.78110000       1.33330000
H       -0.29640000      -0.84700000       3.20930000
H       -1.44400000       0.15040000       2.19280000
H       -1.34010000      -1.51330000       0.54220000
