17
Properties=species:S:1:pos:R:3 gdb_46591=T pbc="F F F"
O       -0.07820000      -0.01020000      -0.00840000
C       -0.02520000       1.19350000      -0.00280000
C       -1.27520000       2.12430000      -0.12180000
O       -0.83760000       3.37120000      -0.67330000
C        0.55520000       3.41360000      -0.55560000
C        1.15590000       3.35920000       0.79330000
C        1.15040000       2.09100000      -0.06840000
C        2.23940000       2.17650000      -1.15930000
C        1.55790000       3.48360000      -1.71250000
H       -2.01070000       1.66960000      -0.79100000
H       -1.74740000       2.26600000       0.86070000
H        2.12760000       3.79930000       0.99670000
H        0.46510000       3.38360000       1.62780000
H        3.26030000       2.28630000      -0.78420000
H        2.21020000       1.34200000      -1.86070000
H        1.06630000       3.31040000      -2.67130000
H        2.16820000       4.38840000      -1.77890000
