19
Properties=species:S:1:pos:R:3 gdb_106267=T pbc="F F F"
C       -0.02810000       1.54350000      -0.01370000
C        0.04730000       0.01110000      -0.03000000
C        0.72640000      -0.52340000      -1.26060000
C        2.19690000      -0.26170000      -1.76350000
C        1.59910000      -1.21270000      -2.85970000
O        2.23590000      -1.70530000      -3.96910000
C        0.96950000      -2.02230000      -1.66650000
C        0.34930000      -0.33920000      -2.74100000
O       -0.46580000       0.18570000      -3.44110000
H        0.97220000       1.98860000      -0.01320000
H       -0.56200000       1.91590000      -0.89310000
H       -0.55220000       1.89850000       0.87820000
H        0.57200000      -0.34990000       0.86340000
H       -0.96560000      -0.40780000       0.01830000
H        2.46190000       0.75400000      -2.06320000
H        2.96910000      -0.72490000      -1.14450000
H        1.71890000      -1.45890000      -4.74490000
H        1.70300000      -2.54170000      -1.04510000
H        0.09270000      -2.63940000      -1.87400000
