19
Properties=species:S:1:pos:R:3 gdb_63224=T pbc="F F F"
C        0.37970000       1.47370000      -0.39340000
C        0.02210000       0.02680000      -0.04050000
O       -1.33380000      -0.04910000       0.40410000
C        0.31340000      -0.91750000      -1.19280000
C        1.36540000      -1.69850000      -0.96770000
C        1.98480000      -1.44230000       0.38330000
C        0.89350000      -0.59820000       1.10460000
C        1.41000000       0.33540000       2.09190000
C        1.85380000       1.09950000       2.90780000
H        1.43760000       1.57000000      -0.65290000
H       -0.20560000       1.80620000      -1.25960000
H        0.16830000       2.13300000       0.45230000
H       -1.86870000       0.50940000      -0.16930000
H       -0.28160000      -0.89410000      -2.10020000
H        1.77170000      -2.42280000      -1.66550000
H        2.22240000      -2.35760000       0.93530000
H        2.92230000      -0.87920000       0.29410000
H        0.21060000      -1.29410000       1.60470000
H        2.23970000       1.77020000       3.63470000
