16
Properties=species:S:1:pos:R:3 gdb_77060=T pbc="F F F"
O        0.18420000       1.38980000       0.19470000
C        0.13820000      -0.01050000       0.10660000
C       -1.26680000      -0.66190000       0.21280000
C       -2.45580000       0.29000000       0.25080000
C       -3.73130000      -0.40090000       0.11490000
C       -4.77380000      -0.98840000       0.00920000
O       -1.07140000      -1.26170000      -1.11970000
C        0.12160000      -0.60310000      -1.28870000
N        0.88460000      -0.48070000      -2.27560000
H        0.72090000       1.70480000      -0.54190000
H        0.87640000      -0.47860000       0.77010000
H       -1.36280000      -1.45460000       0.95750000
H       -2.41710000       0.83490000       1.20270000
H       -2.33440000       1.04360000      -0.53400000
H       -5.70010000      -1.49770000      -0.09010000
H        0.53370000      -0.97520000      -3.09740000
