22
Properties=species:S:1:pos:R:3 gdb_7198=T pbc="F F F"
C        0.63990000       1.27320000       0.20590000
C        0.04590000      -0.11200000      -0.06050000
C        0.73650000      -0.84840000      -1.21280000
C        0.10690000      -2.20490000      -1.53460000
O       -1.25630000      -2.09280000      -1.93520000
C        0.88710000      -2.97820000      -2.60090000
O        2.19070000      -3.23030000      -2.12830000
C        2.98140000      -3.94690000      -3.04560000
H        1.70510000       1.20790000       0.45510000
H        0.54830000       1.92050000      -0.67390000
H        0.13330000       1.77170000       1.03830000
H        0.11860000      -0.72400000       0.84820000
H       -1.02360000      -0.02640000      -0.28270000
H        0.70810000      -0.22630000      -2.12240000
H        1.79670000      -1.00790000      -0.98680000
H        0.08460000      -2.81710000      -0.62480000
H       -1.29170000      -1.47940000      -2.67790000
H        0.35630000      -3.91790000      -2.82190000
H        0.92000000      -2.39110000      -3.53850000
H        2.54520000      -4.93110000      -3.27880000
H        3.10900000      -3.39710000      -3.99180000
H        3.96270000      -4.09490000      -2.58820000
