21
Properties=species:S:1:pos:R:3 gdb_95291=T pbc="F F F"
C       -0.37540000       1.43650000       0.09800000
C        0.10950000      -0.00640000      -0.02100000
C        1.20080000      -0.22500000      -1.08320000
O        1.86800000      -1.43320000      -0.71590000
C        1.90620000      -1.48930000       0.69230000
C        2.87430000      -0.51260000       1.38900000
O        1.78930000       0.36010000       1.77160000
C        0.78650000      -0.56220000       1.24470000
C       -0.14170000      -1.05370000       2.33530000
H        0.43940000       2.08210000       0.43620000
H       -0.74000000       1.80970000      -0.86450000
H       -1.19650000       1.52310000       0.81650000
H       -0.73380000      -0.66810000      -0.25670000
H        0.81080000      -0.35660000      -2.09560000
H        1.90170000       0.62370000      -1.08990000
H        1.94600000      -2.53640000       0.99700000
H        3.39770000      -0.91810000       2.26420000
H        3.59790000      -0.02440000       0.72610000
H       -0.74920000      -0.22960000       2.72390000
H       -0.81650000      -1.82610000       1.95200000
H        0.42770000      -1.47100000       3.17080000
