23
Properties=species:S:1:pos:R:3 gdb_57597=T pbc="F F F"
C        0.35250000       1.52460000       0.17490000
C       -0.01370000       0.03700000       0.07780000
C        0.57680000      -0.76050000       1.25750000
C       -1.52850000      -0.12780000       0.11800000
O       -2.33030000       0.75830000      -0.03680000
C        0.52750000      -0.54230000      -1.25200000
C        0.19200000      -1.98890000      -1.72940000
C        0.17640000      -1.45040000      -3.18590000
C        0.00240000      -0.01600000      -2.61830000
H        1.43850000       1.65330000       0.12440000
H       -0.10460000       2.09600000      -0.63600000
H        0.00010000       1.95440000       1.11720000
H        0.23170000      -0.36540000       2.21880000
H        0.29760000      -1.81830000       1.20670000
H        1.66980000      -0.70250000       1.24410000
H       -1.87450000      -1.17010000       0.31090000
H        1.61860000      -0.42990000      -1.22150000
H        0.90360000      -2.78030000      -1.48210000
H       -0.80460000      -2.31310000      -1.41720000
H        1.14670000      -1.57800000      -3.67430000
H       -0.60020000      -1.82780000      -3.85450000
H       -1.05170000       0.27260000      -2.56150000
H        0.55660000       0.79540000      -3.09570000
