18
Properties=species:S:1:pos:R:3 gdb_97715=T pbc="F F F"
O       -0.01750000       1.45160000       0.00900000
C       -0.00690000       0.02940000       0.00450000
C       -1.37540000      -0.47030000       0.01780000
C       -2.49820000      -0.90730000       0.02910000
C       -3.84360000      -1.41750000       0.04380000
C       -5.00990000      -1.16780000      -0.95230000
N       -5.66790000      -2.11410000       0.06400000
C       -4.34250000      -2.88830000      -0.00600000
C       -4.95300000      -1.25710000       1.12020000
H        0.89940000       1.74500000       0.00120000
H        0.50910000      -0.36380000      -0.88700000
H        0.52800000      -0.36910000       0.88240000
H       -5.45200000      -0.16870000      -0.97490000
H       -4.92070000      -1.59220000      -1.95560000
H       -4.20340000      -3.44010000      -0.93920000
H       -4.15360000      -3.51830000       0.86710000
H       -4.81000000      -1.76600000       2.07690000
H       -5.39120000      -0.26480000       1.25260000
