19
Properties=species:S:1:pos:R:3 gdb_88213=T pbc="F F F"
O       -0.00650000       1.37840000      -0.04360000
C       -0.01510000      -0.01910000       0.00320000
C       -0.48870000      -0.73930000       1.25260000
C       -1.34500000      -0.68310000      -0.00150000
C       -2.62640000       0.11830000      -0.01790000
O       -3.72060000      -0.69040000       0.39860000
C       -3.82410000      -1.85340000      -0.40560000
C       -2.52850000      -2.65660000      -0.35760000
O       -1.43200000      -1.84890000      -0.77940000
H        0.71180000       1.68910000       0.51740000
H        0.75900000      -0.51580000      -0.58150000
H       -0.01020000      -1.68080000       1.49830000
H       -0.79770000      -0.13330000       2.09790000
H       -2.57430000       0.96900000       0.66210000
H       -2.80380000       0.49470000      -1.03860000
H       -4.66100000      -2.43940000      -0.01330000
H       -4.04480000      -1.57800000      -1.45050000
H       -2.35690000      -3.02200000       0.66630000
H       -2.56770000      -3.51160000      -1.03880000
