16
Properties=species:S:1:pos:R:3 gdb_20171=T pbc="F F F"
C       -0.00990000       1.56990000       0.08270000
C        1.52890000       1.53720000      -0.00540000
O        2.14090000       1.28930000       1.28240000
C        2.11720000      -0.14730000       1.08140000
C        1.06280000      -0.84580000       1.92900000
O       -0.19700000      -0.63840000       1.28770000
C       -0.02460000       0.00610000       0.03590000
C        1.49160000       0.01590000      -0.31420000
H       -0.44020000       2.03830000       0.97000000
H       -0.45810000       1.99850000      -0.81980000
H        2.06240000       2.30100000      -0.57410000
H        3.11740000      -0.58090000       1.17720000
H        1.26810000      -1.92410000       1.99580000
H        1.03480000      -0.43050000       2.94290000
H       -0.72140000      -0.43810000      -0.67810000
H        1.88600000      -0.49270000      -1.18970000
