13
Properties=species:S:1:pos:R:3 gdb_128892=T pbc="F F F"
N       -0.80760000      -1.19710000      -0.14890000
C       -0.41020000      -0.11490000      -0.08170000
C        0.05750000       1.26320000       0.01460000
C       -0.16810000       2.01550000       1.40970000
C        1.34720000       2.15590000       1.40570000
N        2.48470000       2.68950000       1.79420000
C        3.31800000       2.22980000       0.79380000
N        2.76760000       1.49320000      -0.17610000
N        1.49710000       1.44520000       0.28990000
H       -0.28730000       1.84020000      -0.84720000
H       -0.73400000       2.94330000       1.31540000
H       -0.59810000       1.38810000       2.19100000
H        4.37610000       2.44640000       0.78700000
