16
Properties=species:S:1:pos:R:3 gdb_105568=T pbc="F F F"
C       -0.13340000       1.50520000      -0.03050000
N        0.05970000       0.05080000       0.01270000
C        0.74300000      -0.49730000      -1.15470000
C        0.57560000      -2.03450000      -1.27810000
O       -0.31150000      -1.86520000      -2.42830000
C       -0.20300000      -0.50710000      -2.39450000
O       -0.71710000       0.29350000      -3.10320000
C        2.08680000       0.01430000      -1.40280000
C        3.19440000       0.45160000      -1.57120000
H        0.80460000       2.07410000      -0.11130000
H       -0.76220000       1.75860000      -0.88690000
H       -0.65380000       1.81030000       0.88080000
H        0.60160000      -0.19080000       0.83780000
H        1.46980000      -2.59260000      -1.55620000
H        0.04440000      -2.49360000      -0.44350000
H        4.17010000       0.83930000      -1.73400000
