17
Properties=species:S:1:pos:R:3 gdb_52587=T pbc="F F F"
C       -0.02990000       1.44290000      -0.14420000
C       -0.00210000      -0.01020000      -0.06510000
C        0.00850000      -1.21110000       0.00060000
C        0.05260000      -2.67730000       0.05990000
C       -1.28740000      -3.25910000       0.18530000
C       -2.37730000      -3.74750000       0.30920000
C        0.83810000      -3.23650000      -1.13740000
C        0.58260000      -4.55800000      -1.71660000
O        0.15920000      -3.35650000      -2.37400000
H        0.65120000       1.89560000       0.58460000
H        0.26690000       1.79100000      -1.13950000
H       -1.03550000       1.82840000       0.05600000
H        0.62840000      -2.96570000       0.95400000
H       -3.34830000      -4.16510000       0.41150000
H        1.84150000      -2.81500000      -1.20620000
H        1.39580000      -5.09510000      -2.20240000
H       -0.22220000      -5.16940000      -1.31590000
