18
Properties=species:S:1:pos:R:3 gdb_70210=T pbc="F F F"
C       -0.09350000       1.53330000       0.05690000
C       -0.01220000       0.02540000       0.06110000
C       -1.13350000      -0.68070000      -0.68060000
N       -1.06350000      -2.12460000      -0.57850000
C       -0.43700000      -2.87640000       0.37390000
O       -0.45300000      -4.09220000       0.34440000
C        0.26250000      -2.11010000       1.49140000
C        0.67210000      -0.70450000       1.13450000
O        1.29260000      -0.52740000      -0.14900000
H        0.75940000       1.95920000       0.58990000
H       -0.08060000       1.91880000      -0.96850000
H       -1.01480000       1.88040000       0.53640000
H       -2.09090000      -0.29630000      -0.29490000
H       -1.08730000      -0.40190000      -1.74090000
H       -1.50700000      -2.67370000      -1.29970000
H       -0.41400000      -2.08040000       2.35600000
H        1.12600000      -2.70960000       1.79360000
H        1.13850000      -0.12920000       1.93530000
