20
Properties=species:S:1:pos:R:3 gdb_10208=T pbc="F F F"
C       -0.08890000       1.51130000      -0.01290000
C        0.07710000      -0.00990000      -0.05440000
C        0.68710000      -0.57280000       1.23460000
C        0.82410000      -2.11260000       1.23910000
C        1.71310000      -2.58860000       2.38400000
O        1.76440000      -4.00510000       2.32160000
C       -0.55500000      -2.73450000       1.37430000
O       -1.22110000      -3.15380000       0.46480000
H        0.87280000       2.01300000       0.14370000
H       -0.51260000       1.88900000      -0.94830000
H       -0.75640000       1.81610000       0.80100000
H       -0.89230000      -0.48580000      -0.24100000
H        0.71620000      -0.28870000      -0.90170000
H        1.68160000      -0.13390000       1.39030000
H        0.08220000      -0.25900000       2.09780000
H        1.24790000      -2.45000000       0.28710000
H        2.71320000      -2.13970000       2.28550000
H        1.29260000      -2.24510000       3.34440000
H        2.26270000      -4.32890000       3.07770000
H       -0.94760000      -2.73200000       2.42050000
