20
Properties=species:S:1:pos:R:3 gdb_118743=T pbc="F F F"
C       -0.02300000       1.36000000      -0.13370000
O       -0.01090000      -0.04850000      -0.09400000
C       -1.29000000      -0.61060000       0.10420000
C       -1.14200000      -2.12940000       0.10130000
C       -0.27210000      -2.62390000       1.25320000
C       -2.48930000      -2.88680000      -0.12400000
C       -1.91530000      -3.27260000      -1.51090000
O       -2.31320000      -3.86590000      -2.47690000
N       -0.72990000      -2.64390000      -1.22010000
H        1.00540000       1.69140000      -0.29520000
H       -0.65320000       1.73830000      -0.95350000
H       -0.39220000       1.79020000       0.81020000
H       -1.72300000      -0.27230000       1.06130000
H       -1.97470000      -0.30090000      -0.70250000
H       -0.72630000      -2.36650000       2.21590000
H       -0.15290000      -3.70950000       1.20460000
H        0.71640000      -2.15910000       1.21260000
H       -2.66340000      -3.73010000       0.54650000
H       -3.38420000      -2.26230000      -0.17000000
H        0.05830000      -2.39570000      -1.80010000
