17
Properties=species:S:1:pos:R:3 gdb_106946=T pbc="F F F"
O        0.16930000       1.06940000      -0.81180000
C       -0.02680000       0.09260000       0.19940000
C       -1.44090000      -0.43670000       0.18420000
C       -2.49710000       0.08170000       1.08710000
N       -1.89170000      -1.25680000       1.32110000
C       -2.69490000      -2.29480000       0.76300000
N       -3.22930000      -3.20150000       1.45180000
O       -2.80070000      -2.16660000      -0.60190000
C       -1.93050000      -1.13370000      -1.07710000
H       -0.35900000       1.84190000      -0.58490000
H        0.67320000      -0.71850000      -0.02820000
H        0.21790000       0.46980000       1.20190000
H       -2.25170000       0.81110000       1.85320000
H       -3.52250000       0.11150000       0.72830000
H       -3.74500000      -3.84140000       0.84800000
H       -2.49140000      -0.48860000      -1.75850000
H       -1.09320000      -1.58080000      -1.62530000
