17
Properties=species:S:1:pos:R:3 gdb_118337=T pbc="F F F"
N        1.22450000      -0.61320000       0.01640000
C        0.05810000       0.08140000      -0.18980000
O        0.03240000       1.25170000      -0.50230000
N       -1.12540000      -0.68730000      -0.04130000
C       -1.14420000      -2.16020000       0.02420000
C       -1.31350000      -2.73860000       1.43400000
O       -2.63590000      -2.70680000       1.90550000
C       -2.32760000      -0.01060000      -0.01830000
O       -3.39290000      -0.55440000       0.20070000
H        2.03920000      -0.01910000       0.03810000
H        1.24380000      -1.40260000       0.64110000
H       -1.98160000      -2.49970000      -0.59290000
H       -0.22430000      -2.52200000      -0.43870000
H       -0.99220000      -3.78890000       1.41040000
H       -0.62710000      -2.20990000       2.12170000
H       -3.10530000      -1.99280000       1.44710000
H       -2.21350000       1.06100000      -0.21640000
