20
Properties=species:S:1:pos:R:3 gdb_111606=T pbc="F F F"
C        1.06660000       0.75590000       0.88270000
C       -0.05130000       0.37430000      -0.09530000
C        0.49290000      -0.35740000      -1.30750000
C        0.94320000      -1.78100000      -1.40290000
C        0.49670000      -2.84570000      -0.43620000
O       -0.39140000      -2.43130000       0.61270000
C       -0.95980000      -3.00280000      -0.57240000
C       -1.43350000      -1.98990000      -1.60940000
N       -0.24350000      -1.30240000      -2.16630000
H        1.51570000      -0.13900000       1.32360000
H        1.86160000       1.32140000       0.38340000
H        0.67920000       1.37530000       1.69740000
H       -0.80090000      -0.21540000       0.42750000
H       -0.54330000       1.28560000      -0.46060000
H        1.07970000       0.31710000      -1.93500000
H        1.82780000      -2.02680000      -1.98720000
H        1.17030000      -3.65910000      -0.18230000
H       -1.49120000      -3.94100000      -0.42660000
H       -1.92670000      -2.51960000      -2.43240000
H       -2.15590000      -1.27810000      -1.19580000
