20
Properties=species:S:1:pos:R:3 gdb_67638=T pbc="F F F"
C        0.03420000       1.52420000       0.03190000
C       -0.02300000       0.02960000      -0.03470000
C        0.68400000      -1.00000000      -0.87830000
C       -0.62700000      -1.79330000      -1.12300000
C       -0.84580000      -3.04990000      -0.25680000
C       -0.99400000      -2.09120000       0.95840000
C        0.39950000      -1.74820000       1.50450000
N        1.01010000      -0.81040000       0.54930000
C       -1.28090000      -0.89220000      -0.03310000
H        1.06340000       1.87060000      -0.09640000
H       -0.58590000       1.98050000      -0.74730000
H       -0.32670000       1.88960000       1.00110000
H        1.50440000      -0.89760000      -1.58170000
H       -0.95380000      -1.77040000      -2.16390000
H       -1.78730000      -3.54390000      -0.51460000
H       -0.05110000      -3.80200000      -0.20630000
H       -1.72590000      -2.34270000       1.72780000
H        0.34350000      -1.23610000       2.47220000
H        1.03160000      -2.63400000       1.62780000
H       -2.28640000      -0.48750000      -0.12280000
