21
Properties=species:S:1:pos:R:3 gdb_103210=T pbc="F F F"
C       -0.13260000       1.57550000       0.00660000
C       -0.06750000       0.04980000       0.00150000
C       -1.42600000      -0.54820000      -0.34160000
O       -1.76300000      -0.14720000      -1.66680000
C        1.16460000      -0.60840000      -0.67700000
C        2.10730000      -0.27870000       0.53550000
C        2.61380000      -1.72770000       0.63480000
C        1.12740000      -1.86660000       0.26250000
C        0.70970000      -0.64170000       1.15370000
H        0.84290000       2.02780000       0.20330000
H       -0.49430000       1.94240000      -0.95760000
H       -0.82700000       1.93150000       0.77750000
H       -1.39710000      -1.64440000      -0.26300000
H       -2.17660000      -0.18680000       0.38140000
H       -2.64170000      -0.48130000      -1.86750000
H        1.44700000      -0.60240000      -1.73120000
H        2.66210000       0.64640000       0.69200000
H        3.34190000      -2.04740000      -0.11810000
H        2.90910000      -2.08100000       1.62850000
H        0.55340000      -2.77960000       0.10280000
H        0.47140000      -0.67390000       2.22000000
