19
Properties=species:S:1:pos:R:3 gdb_38138=T pbc="F F F"
C        0.41000000       1.59490000       0.43150000
C        1.47960000       1.54240000      -0.69340000
C        1.37050000      -0.01180000      -0.69300000
C        2.46580000      -0.71280000       0.07260000
O        2.77580000      -0.21530000       1.37420000
C        2.14150000      -1.51520000       1.26840000
C        0.73520000      -1.61240000       1.72780000
C       -0.23170000      -0.86030000       1.19470000
C        0.02210000       0.11480000       0.09400000
H        0.87030000       1.66030000       1.41800000
H       -0.38060000       2.34420000       0.34470000
H        1.12590000       1.97610000      -1.63250000
H        2.45980000       1.96260000      -0.45840000
H        1.28760000      -0.48500000      -1.67640000
H        3.34390000      -0.99220000      -0.51280000
H        2.80300000      -2.33530000       1.54160000
H        0.51770000      -2.31980000       2.52230000
H       -1.25100000      -0.95290000       1.56230000
H       -0.82140000       0.11300000      -0.60480000
