19
Properties=species:S:1:pos:R:3 gdb_107114=T pbc="F F F"
C       -0.07150000       1.51880000      -0.01980000
C        0.03950000       0.02310000      -0.00660000
C       -0.85850000      -0.91090000       0.75670000
C        0.62210000      -0.90970000       1.05520000
C        1.42980000      -1.63260000      -0.06690000
C        2.75380000      -2.32750000       0.03510000
O        3.24850000      -2.67750000      -1.23820000
O        0.50770000      -2.16610000      -1.04540000
C        0.85910000      -0.76470000      -1.08690000
H        0.89960000       1.99340000      -0.20390000
H       -0.76080000       1.86060000      -0.80170000
H       -0.44660000       1.89150000       0.93860000
H       -1.46620000      -0.42750000       1.51600000
H       -1.31780000      -1.76460000       0.27470000
H        1.03460000      -0.65390000       2.02280000
H        3.48750000      -1.66260000       0.50550000
H        2.64630000      -3.20920000       0.69110000
H        2.49180000      -3.03030000      -1.72400000
H        1.26020000      -0.37690000      -2.01600000
