19
Properties=species:S:1:pos:R:3 gdb_84243=T pbc="F F F"
C       -0.08170000       1.52720000      -0.06570000
C        0.01900000       0.00590000      -0.02420000
N        0.94340000      -0.41520000      -1.12070000
C        1.62890000      -1.35970000      -0.61650000
N        3.01570000      -1.03200000      -0.23260000
C        2.28320000      -1.00960000       1.15210000
C        1.20000000      -1.94010000       0.77130000
C        0.73070000      -0.59830000       1.22080000
C        0.17430000      -0.35310000       2.60340000
H        0.91450000       1.97550000      -0.02270000
H       -0.56220000       1.85150000      -0.99210000
H       -0.67480000       1.89400000       0.77910000
H       -0.99200000      -0.42840000      -0.09130000
H        3.57240000      -1.89110000      -0.14950000
H        2.90270000      -0.97420000       2.04330000
H        0.93550000      -2.94510000       1.07550000
H        0.70050000      -0.93830000       3.36360000
H        0.24980000       0.70310000       2.88210000
H       -0.88470000      -0.63370000       2.64510000
