17
Properties=species:S:1:pos:R:3 gdb_124839=T pbc="F F F"
C       -0.05410000       1.54720000       0.05110000
C       -0.06330000       0.01810000       0.03780000
O        0.48000000      -0.50700000      -1.16320000
C        0.80210000      -0.54000000       1.16850000
N        0.70900000      -1.98740000       1.26690000
N       -0.41620000      -2.62440000       1.56850000
C       -0.01570000      -3.88910000       1.52530000
N        1.29340000      -4.01350000       1.21520000
N        1.74120000      -2.79240000       1.05220000
H        0.96520000       1.92720000      -0.07000000
H       -0.66000000       1.93530000      -0.77400000
H       -0.47090000       1.94160000       0.98360000
H       -1.08960000      -0.34690000       0.19100000
H       -0.11630000      -0.28990000      -1.88610000
H        1.85440000      -0.31750000       0.98330000
H        0.49820000      -0.10930000       2.12580000
H       -0.66890000      -4.72350000       1.72220000
