20
Properties=species:S:1:pos:R:3 gdb_13190=T pbc="F F F"
C       -0.39070000       1.45740000       0.18460000
C       -0.09730000      -0.01540000      -0.08660000
C        0.74740000      -0.25870000      -1.32950000
O        1.21890000       0.65360000      -1.97350000
C        0.93360000      -1.70370000      -1.74750000
C       -0.02990000      -2.20600000      -2.88230000
C        1.17720000      -2.93060000      -3.53310000
C        2.12420000      -2.04620000      -2.68070000
H        0.53770000       2.02480000       0.28430000
H       -0.95370000       1.90200000      -0.64050000
H       -0.97250000       1.57580000       1.10310000
H        0.43440000      -0.47580000       0.75900000
H       -1.02230000      -0.60090000      -0.18620000
H        0.87520000      -2.36710000      -0.87930000
H       -0.88940000      -2.80700000      -2.57700000
H       -0.37870000      -1.36900000      -3.49330000
H        1.22290000      -3.98280000      -3.23830000
H        1.27020000      -2.87110000      -4.61980000
H        2.44310000      -1.14650000      -3.21180000
H        2.99460000      -2.52230000      -2.22370000
