17
Properties=species:S:1:pos:R:3 gdb_71970=T pbc="F F F"
C       -0.05730000       1.49970000      -0.02350000
C        0.02390000       0.00510000      -0.04520000
C        0.92460000      -0.89340000      -0.89870000
C        0.06020000      -2.05970000      -0.36100000
O        0.41580000      -2.12480000       1.04850000
C       -0.29060000      -0.88720000       1.20000000
C       -0.62500000      -0.38600000       2.48250000
C       -0.90840000       0.05410000       3.56600000
C       -1.09150000      -1.03240000      -0.06580000
H        0.89650000       1.93740000       0.29150000
H       -0.29990000       1.89830000      -1.01490000
H       -0.82520000       1.84200000       0.67700000
H        0.75260000      -0.71490000      -1.96410000
H        1.99600000      -0.94040000      -0.68040000
H       -0.00600000      -3.03440000      -0.83750000
H       -1.15920000       0.43410000       4.52530000
H       -2.15420000      -0.98830000      -0.26130000
