13
Properties=species:S:1:pos:R:3 gdb_131359=T pbc="F F F"
O        0.05300000       1.33460000      -0.02070000
C        0.06240000      -0.00760000       0.00360000
N        0.06730000      -0.73010000      -1.09810000
N        0.07650000      -2.02860000      -0.63940000
C        0.07720000      -2.09440000       0.69920000
O        0.08560000      -3.27440000       1.33080000
C        0.06810000      -0.79240000       1.19440000
C        0.06570000      -0.43910000       2.55530000
C        0.06430000      -0.20200000       3.73820000
H        0.05090000       1.60200000      -0.94920000
H        0.08200000      -2.79270000      -1.29150000
H        0.08440000      -3.09590000       2.28110000
H        0.06280000       0.03610000       4.77260000
