16
Properties=species:S:1:pos:R:3 gdb_96770=T pbc="F F F"
C       -0.10670000       1.39730000      -0.11490000
N       -0.12460000      -0.05570000      -0.11310000
C        0.52300000      -0.68700000      -0.97470000
C        0.81810000      -2.10410000      -1.23920000
C        0.94490000      -2.32590000      -2.78610000
N        0.27550000      -1.39210000      -3.67850000
C        0.60610000      -0.24360000      -3.24290000
N        1.46690000      -0.21970000      -2.07140000
C        2.01890000      -1.62670000      -2.05220000
H        0.61800000       1.82570000      -0.81870000
H       -1.10760000       1.76840000      -0.36220000
H        0.12340000       1.75160000       0.89520000
H        0.70390000      -2.94490000      -0.56940000
H        1.02720000      -3.35700000      -3.10400000
H        0.23050000       0.69400000      -3.63670000
H        3.07830000      -1.82120000      -1.95070000
