20
Properties=species:S:1:pos:R:3 gdb_53936=T pbc="F F F"
C        0.54240000       0.89280000       0.38270000
C       -0.08750000      -0.25550000      -0.37590000
O        0.48360000      -0.73860000      -1.33490000
C       -1.46910000      -0.79130000       0.06440000
C       -2.04020000      -0.09500000       1.30610000
C       -2.43380000      -0.59040000      -1.13620000
C       -1.38320000      -2.32300000       0.36170000
N       -0.82060000      -3.07670000      -0.61920000
O       -1.85420000      -2.79290000       1.37950000
H        1.50980000       1.12540000      -0.06290000
H       -0.10080000       1.77840000       0.35180000
H        0.66900000       0.63490000       1.43890000
H       -2.17370000       0.97610000       1.12980000
H       -3.01100000      -0.52860000       1.55020000
H       -1.40460000      -0.23410000       2.18320000
H       -2.03670000      -1.04440000      -2.04500000
H       -3.40400000      -1.04220000      -0.91110000
H       -2.59190000       0.47700000      -1.32290000
H       -0.24970000      -2.62130000      -1.31770000
H       -0.67190000      -4.05140000      -0.41200000
