20
Properties=species:S:1:pos:R:3 gdb_87923=T pbc="F F F"
C       -0.00720000       1.51680000      -0.14560000
C        0.02300000       0.02140000       0.06490000
N        1.33830000      -0.65000000      -0.02600000
C        0.60530000      -0.63890000       1.25660000
C        1.29250000       0.08270000       2.41760000
C        1.90150000      -1.06140000       3.24680000
C        0.98410000      -2.26610000       3.00850000
O        0.98810000      -3.29600000       3.63000000
C        0.04960000      -1.93070000       1.83570000
H        0.86090000       1.99790000       0.31020000
H        0.00260000       1.75350000      -1.21480000
H       -0.91390000       1.95340000       0.28730000
H       -0.81690000      -0.50670000      -0.38800000
H        1.24020000      -1.55310000      -0.48450000
H        2.03630000       0.79670000       2.06330000
H        0.54940000       0.62950000       3.01110000
H        2.89300000      -1.33380000       2.86250000
H        2.01440000      -0.85910000       4.31420000
H       -0.95670000      -1.78140000       2.25130000
H       -0.01760000      -2.76200000       1.12800000
