18
Properties=species:S:1:pos:R:3 gdb_36643=T pbc="F F F"
N       -0.16510000      -1.19300000      -0.32400000
C       -0.10700000      -0.04710000      -0.18710000
C       -0.00630000       1.40050000      -0.01720000
C        1.43850000       1.91810000      -0.19400000
C        1.50100000       3.43190000      -0.05550000
C        1.48340000       4.18230000       1.31310000
C        2.93720000       3.73790000       1.60260000
C        2.82990000       4.21850000       0.13540000
O        2.02470000       5.36810000       0.61130000
H       -0.67300000       1.88380000      -0.74070000
H       -0.38430000       1.66030000       0.97830000
H        2.08680000       1.41310000       0.52660000
H        1.79630000       1.63190000      -1.18950000
H        0.85230000       3.92980000      -0.78290000
H        0.65770000       4.34700000       2.00650000
H        3.49210000       4.40840000       2.25880000
H        3.14530000       2.68590000       1.80570000
H        3.61870000       4.42340000      -0.58910000
