18
Properties=species:S:1:pos:R:3 gdb_62189=T pbc="F F F"
C        0.15470000       1.52250000       0.12120000
C        0.02170000      -0.00900000      -0.01980000
N       -1.33510000      -0.55060000       0.06970000
C       -1.97560000      -0.40600000       1.36940000
C       -3.23620000      -1.29090000       1.41100000
C       -3.92510000      -1.20420000       2.69560000
N       -4.45230000      -1.12050000       3.72020000
C        0.61100000      -0.44620000      -1.29750000
N        1.07110000      -0.75770000      -2.31010000
H        1.20100000       1.82950000       0.04050000
H       -0.41260000       2.03110000      -0.66400000
H       -0.22360000       1.84610000       1.09420000
H        0.60610000      -0.48490000       0.77860000
H       -1.91200000      -0.14900000      -0.66350000
H       -1.27420000      -0.75050000       2.13730000
H       -2.25300000       0.62720000       1.63140000
H       -3.93320000      -0.99000000       0.61970000
H       -2.95810000      -2.33020000       1.21100000
