13
Properties=species:S:1:pos:R:3 gdb_133250=T pbc="F F F"
C        0.03560000       1.40390000       0.07180000
N        0.03300000      -0.05040000       0.03520000
N       -0.08220000      -0.64230000      -1.15230000
N       -0.09040000      -1.90870000      -1.23930000
C        0.02260000      -2.71940000      -0.08040000
N        0.02150000      -3.99320000      -0.10190000
C        0.14200000      -1.96600000       1.16150000
F        0.25070000      -2.62450000       2.28910000
N        0.14810000      -0.68790000       1.22780000
H        0.97200000       1.76290000       0.50620000
H       -0.06350000       1.75410000      -0.95400000
H       -0.80100000       1.76180000       0.67720000
H       -0.07210000      -4.30660000      -1.07180000
