16
Properties=species:S:1:pos:R:3 gdb_128329=T pbc="F F F"
C       -0.06040000       1.40450000       0.08130000
N        0.18740000      -0.01990000      -0.04810000
C        0.70230000      -0.71660000       1.01670000
N        1.28200000      -0.11700000       2.05120000
N        1.69800000      -1.14820000       2.84020000
C        1.38990000      -2.35950000       2.34640000
C        0.73000000      -2.14640000       1.14510000
C        0.19160000      -3.08130000       0.24020000
C       -0.29440000      -3.83930000      -0.56250000
H        0.87510000       1.91800000       0.31750000
H       -0.43490000       1.78550000      -0.87160000
H       -0.78300000       1.64890000       0.87380000
H       -0.49230000      -0.54220000      -0.57960000
H        2.17530000      -0.93530000       3.69790000
H        1.64560000      -3.27550000       2.85440000
H       -0.70620000      -4.52010000      -1.26500000
