19
Properties=species:S:1:pos:R:3 gdb_108892=T pbc="F F F"
O        0.08940000       1.38260000       0.25040000
C        0.06840000       0.01630000      -0.11790000
C       -1.32720000      -0.51090000      -0.05020000
C       -2.41830000       0.15650000       0.31980000
C       -3.67440000      -0.69470000       0.20310000
C       -3.08940000      -2.13360000       0.05090000
C       -1.64980000      -1.92860000      -0.47350000
C       -4.60880000      -0.55410000       1.31500000
C       -5.37530000      -0.44260000       2.23480000
H        1.00300000       1.68090000       0.24240000
H        0.46000000      -0.13230000      -1.14090000
H        0.71280000      -0.58990000       0.54430000
H       -2.44340000       1.19230000       0.62940000
H       -4.20940000      -0.41400000      -0.71820000
H       -3.05990000      -2.60030000       1.03890000
H       -3.70260000      -2.76500000      -0.59590000
H       -1.59550000      -2.02470000      -1.56770000
H       -0.94910000      -2.66770000      -0.06650000
H       -6.05180000      -0.34000000       3.04640000
