22
Properties=species:S:1:pos:R:3 gdb_82642=T pbc="F F F"
C        0.05790000       1.66550000       0.00730000
C        0.07090000       0.14120000      -0.00410000
C        1.06980000      -0.66020000      -0.89160000
C        2.44470000      -0.24090000      -0.35750000
N        2.12790000      -0.89250000       0.95380000
C        0.63890000      -0.67010000       1.16720000
C        0.14200000      -0.72560000       2.57800000
C        1.10990000      -1.74770000       0.26080000
C        1.07040000      -3.23760000       0.29000000
H        1.03310000       2.09070000       0.25980000
H       -0.23970000       2.06130000      -0.97040000
H       -0.66120000       2.03950000       0.74450000
H       -0.94100000      -0.23260000      -0.20390000
H        0.86910000      -0.81680000      -1.95130000
H        3.26870000      -0.79110000      -0.82080000
H        2.70180000       0.82330000      -0.31420000
H        0.30070000       0.23100000       3.08880000
H       -0.93010000      -0.95040000       2.60850000
H        0.67370000      -1.49410000       3.14560000
H        0.11390000      -3.61730000      -0.08670000
H        1.86830000      -3.67230000      -0.32290000
H        1.20170000      -3.59880000       1.31480000
