13
Properties=species:S:1:pos:R:3 gdb_25535=T pbc="F F F"
N        0.00440000       1.24090000       0.22160000
C       -0.02380000       0.01310000      -0.03520000
O       -1.07660000      -0.72440000       0.45440000
C       -1.09730000      -2.04360000       0.21060000
C       -2.12150000      -2.85960000      -0.05490000
N       -1.56160000      -4.14780000      -0.10970000
C       -0.21050000      -4.10390000       0.10540000
O        0.61440000      -4.97180000       0.12130000
O        0.07680000      -2.74760000       0.31900000
H        0.82800000       1.66820000      -0.19740000
H        0.69100000      -0.58380000      -0.60550000
H       -3.16670000      -2.65630000      -0.19690000
H       -2.04800000      -5.00970000      -0.28070000
