19
Properties=species:S:1:pos:R:3 gdb_80068=T pbc="F F F"
O        0.15220000       1.42210000      -0.16200000
C       -0.00180000       0.04300000      -0.00570000
C        0.22850000      -0.65490000       1.39640000
C       -0.38220000       0.26370000       2.41780000
C       -1.68210000       0.52210000       2.23430000
C       -2.35140000      -0.32040000       1.17740000
C       -2.14730000      -1.80870000       1.63540000
C       -0.80580000      -1.76150000       0.90070000
C       -1.36860000      -0.64060000      -0.03850000
H       -0.34800000       1.83840000       0.55150000
H        0.64660000      -0.42980000      -0.75010000
H        1.23900000      -0.98360000       1.63840000
H        0.22570000       0.73420000       3.18310000
H       -2.26120000       1.19550000       2.85770000
H       -3.36080000       0.00280000       0.92430000
H       -2.18160000      -2.01190000       2.70940000
H       -2.83030000      -2.48090000       1.10660000
H       -0.33620000      -2.67430000       0.53340000
H       -1.87510000      -0.83690000      -0.98460000
