19
Properties=species:S:1:pos:R:3 gdb_80740=T pbc="F F F"
O       -0.78420000       1.73540000       0.38200000
C       -0.16920000       0.51910000       0.05440000
C       -0.13870000      -0.66110000       0.99860000
C       -1.04020000      -0.65330000       2.22330000
C       -2.46000000      -0.26100000       1.70950000
C       -2.47710000      -0.68080000       0.20830000
C       -1.02490000      -0.67600000      -0.24330000
C       -3.54220000      -0.83970000       2.49220000
C       -4.43130000      -1.32990000       3.13710000
H       -0.21150000       2.20000000       1.00140000
H        0.71040000       0.62940000      -0.58080000
H        0.77580000      -1.24320000       1.04930000
H       -1.06450000      -1.65830000       2.65640000
H       -0.70510000       0.02870000       3.01190000
H       -2.53930000       0.82760000       1.74570000
H       -2.87820000      -1.69430000       0.10800000
H       -3.11580000      -0.01420000      -0.37820000
H       -0.77010000      -1.27100000      -1.11380000
H       -5.21980000      -1.75460000       3.70690000
