17
Properties=species:S:1:pos:R:3 gdb_78017=T pbc="F F F"
C       -0.09620000       1.56880000       0.01040000
C        0.16640000       0.07800000       0.04640000
O        1.31940000      -0.35830000      -0.75490000
C        1.77190000      -1.18990000       0.30900000
C        2.20230000      -2.57470000       0.08020000
O        2.27630000      -3.11210000      -0.99630000
C        2.20420000      -0.30070000       1.44890000
O        2.81330000       0.91720000       1.18450000
C        0.73660000      -0.59150000       1.29830000
H        0.73040000       2.13520000       0.44160000
H       -0.26200000       1.89480000      -1.02130000
H       -1.00270000       1.79190000       0.58310000
H       -0.70880000      -0.47560000      -0.31360000
H        2.47280000      -3.09860000       1.02630000
H        2.66530000      -0.81410000       2.28880000
H        2.74390000       1.05320000       0.22870000
H        0.15870000      -1.10300000       2.05740000
