21
Properties=species:S:1:pos:R:3 gdb_102800=T pbc="F F F"
C        1.13800000      -0.55900000      -0.89170000
C        0.12530000       0.04990000       0.08980000
C        0.24170000       1.57980000       0.11440000
C       -1.30750000      -0.39190000      -0.24730000
C       -1.54730000      -1.90380000      -0.21350000
O       -1.21290000      -2.47120000       1.03540000
O       -2.19930000       0.17070000       0.74880000
C       -3.25520000       0.90150000       0.34450000
O       -4.06310000       1.34500000       1.10360000
H        2.14060000      -0.17540000      -0.68100000
H        1.18190000      -1.64840000      -0.81670000
H        0.89830000      -0.29580000      -1.92930000
H        0.34390000      -0.33760000       1.09120000
H        0.02400000       2.00830000      -0.87210000
H       -0.44290000       2.02660000       0.83900000
H        1.25860000       1.88000000       0.38460000
H       -1.59200000      -0.00600000      -1.23790000
H       -2.60000000      -2.09370000      -0.47630000
H       -0.92790000      -2.40120000      -0.96480000
H       -1.74150000      -2.01440000       1.70030000
H       -3.28140000       1.04580000      -0.75320000
