17
Properties=species:S:1:pos:R:3 gdb_16151=T pbc="F F F"
C        0.00020000       1.52760000       0.23640000
C       -0.01650000       0.04400000      -0.15300000
C       -1.38580000      -0.56970000      -0.08040000
C       -2.03790000      -1.06590000       1.18040000
C       -1.78890000      -2.03230000       0.03500000
N       -2.89070000      -2.22200000      -0.88290000
C       -3.10240000      -1.07770000      -1.39660000
O       -2.30230000      -0.03810000      -1.04600000
H        1.01230000       1.93740000       0.17010000
H       -0.64630000       2.10910000      -0.42690000
H       -0.35700000       1.66860000       1.26160000
H        0.37460000      -0.08200000      -1.16980000
H        0.64360000      -0.52680000       0.51040000
H       -1.38840000      -1.16150000       2.04400000
H       -3.06290000      -0.78490000       1.39820000
H       -1.10220000      -2.86170000       0.15550000
H       -3.87530000      -0.83410000      -2.11530000
