15
Properties=species:S:1:pos:R:3 gdb_12034=T pbc="F F F"
C       -0.04170000       1.55060000       0.07020000
C        0.01150000       0.02260000       0.00940000
C        1.10840000      -0.63040000      -0.93890000
C        1.74030000      -1.26940000       0.30070000
O        2.07320000      -0.20420000       1.20400000
C        0.73560000      -0.68550000       1.19740000
C       -1.30620000      -0.55710000      -0.22500000
N       -2.35120000      -1.02240000      -0.39500000
H        0.95160000       1.92920000       0.32000000
H       -0.34900000       1.96620000      -0.89340000
H       -0.75240000       1.88850000       0.82970000
H        0.67810000      -1.35090000      -1.63580000
H        1.74090000       0.08060000      -1.47460000
H        2.31100000      -2.18580000       0.38230000
H        0.30190000      -1.02440000       2.13060000
