19
Properties=species:S:1:pos:R:3 gdb_53267=T pbc="F F F"
C       -0.05650000       1.46260000      -0.09010000
C       -0.05770000       0.00780000      -0.10490000
C       -0.05480000      -1.19720000      -0.10660000
C       -0.04660000      -2.63260000      -0.13920000
O       -0.26130000      -3.33640000       1.11010000
C       -1.26150000      -3.43030000       0.12340000
C       -2.70010000      -2.93180000       0.25210000
C       -3.09850000      -4.02470000      -0.78750000
C       -1.71600000      -4.71490000      -0.57350000
H        0.94780000       1.86170000      -0.26940000
H       -0.72000000       1.87000000      -0.86090000
H       -0.39850000       1.84480000       0.87790000
H        0.72700000      -3.08530000      -0.75980000
H       -3.10370000      -3.13400000       1.24850000
H       -2.88480000      -1.88590000      -0.00200000
H       -3.98150000      -4.62170000      -0.55520000
H       -3.20520000      -3.61680000      -1.79500000
H       -1.16020000      -5.03920000      -1.45650000
H       -1.77170000      -5.54720000       0.13470000
