18
Properties=species:S:1:pos:R:3 gdb_93154=T pbc="F F F"
C       -0.23710000       1.58710000       0.03840000
C        0.00950000       0.06450000       0.00240000
C        0.74250000      -0.38340000      -1.27890000
N        1.98090000       0.32950000      -1.57720000
C        2.97060000       0.16850000      -0.81510000
O        3.03320000      -0.60140000       0.31570000
C        2.22100000      -0.22800000       1.43160000
C        0.70060000      -0.37870000       1.28530000
O        0.07190000      -0.77960000       2.23790000
H        0.69940000       2.15090000       0.03200000
H       -0.81000000       1.89050000      -0.84320000
H       -0.80610000       1.86270000       0.93030000
H       -0.96360000      -0.43790000       0.01950000
H        0.94240000      -1.46210000      -1.21760000
H        0.06490000      -0.22570000      -2.12350000
H        3.93360000       0.61780000      -1.06090000
H        2.53290000      -0.86580000       2.25920000
H        2.42870000       0.81720000       1.70790000
