19
Properties=species:S:1:pos:R:3 gdb_108796=T pbc="F F F"
C       -0.15110000       1.59850000       0.06200000
C        0.00760000       0.07240000      -0.02470000
C        0.74590000      -0.44720000      -1.23070000
C        1.78750000      -1.22350000      -0.91950000
C        2.71760000      -1.89530000      -1.87650000
O        2.34770000      -1.58300000      -3.20560000
C        1.95230000      -1.38310000       0.57060000
C        0.84260000      -0.48690000       1.14390000
O        0.66770000      -0.24200000       2.30880000
H        0.81700000       2.09890000      -0.03950000
H       -0.80790000       1.96790000      -0.73100000
H       -0.58030000       1.87350000       1.02920000
H       -0.99580000      -0.37570000       0.04810000
H        0.45520000      -0.21090000      -2.24650000
H        3.75220000      -1.57380000      -1.65830000
H        2.69450000      -2.98530000      -1.69590000
H        2.95800000      -2.02820000      -3.79970000
H        1.81240000      -2.41610000       0.91920000
H        2.93160000      -1.06550000       0.95210000
