19
Properties=species:S:1:pos:R:3 gdb_116849=T pbc="F F F"
C       -0.03910000       1.53700000      -0.02510000
C       -0.01220000       0.00770000      -0.02270000
C        0.72420000      -0.55940000       1.20820000
C        0.77010000      -2.01350000       1.24500000
C        0.80330000      -3.22070000       1.26730000
C        0.84960000      -4.67000000       1.30550000
O        1.38440000      -5.28840000       2.19530000
C        0.16090000      -5.33630000       0.11870000
O        0.25420000      -6.72890000       0.23960000
H        0.97460000       1.95260000      -0.03600000
H       -0.56500000       1.91940000      -0.90460000
H       -0.54790000       1.92730000       0.86330000
H       -1.03360000      -0.38850000      -0.03770000
H        0.47730000      -0.36330000      -0.93000000
H        1.75110000      -0.17040000       1.23640000
H        0.24380000      -0.19550000       2.12670000
H       -0.88090000      -4.97140000       0.10040000
H        0.64140000      -4.94740000      -0.79610000
H       -0.18520000      -7.12370000      -0.51910000
