14
Properties=species:S:1:pos:R:3 gdb_25128=T pbc="F F F"
N       -0.04170000       1.36240000       0.01070000
C       -0.00710000       0.08200000       0.00340000
N        1.16730000      -0.70530000      -0.00700000
C        1.15380000      -2.06650000      -0.01450000
N        0.09390000      -2.79870000      -0.01320000
C       -1.11630000      -2.10230000      -0.00310000
C       -1.19710000      -0.74270000       0.00490000
C       -2.29470000      -2.90670000      -0.00160000
C       -3.29440000      -3.57640000      -0.00020000
H        0.89330000       1.77260000       0.00820000
H        2.05590000      -0.22530000      -0.00890000
H        2.13300000      -2.54040000      -0.02220000
H       -2.14980000      -0.23100000       0.01260000
H       -4.17350000      -4.17210000       0.00100000
