18
Properties=species:S:1:pos:R:3 gdb_16422=T pbc="F F F"
C       -0.18010000       1.55490000       0.07410000
C        0.05630000       0.04810000       0.00530000
O        0.79210000      -0.31510000      -1.17480000
C        2.20530000      -0.42160000      -1.01900000
C        2.55220000      -0.89430000       0.38550000
C        1.45570000      -1.84060000       0.91680000
C        0.78070000      -0.49310000       1.23980000
O        2.09190000       0.14390000       1.30290000
H        0.76070000       2.08090000       0.25300000
H       -0.61480000       1.90800000      -0.86440000
H       -0.87080000       1.80000000       0.88860000
H       -0.90540000      -0.47310000      -0.09490000
H        2.54530000      -1.13480000      -1.77930000
H        2.70190000       0.54360000      -1.19920000
H        3.61040000      -1.13580000       0.51540000
H        0.96290000      -2.51220000       0.21220000
H        1.77070000      -2.36950000       1.81660000
H        0.20630000      -0.36660000       2.16140000
