18
Properties=species:S:1:pos:R:3 gdb_132769=T pbc="F F F"
C        0.01250000       1.52390000       0.03470000
C        0.00410000       0.01870000      -0.02200000
C       -0.04280000      -0.69370000      -1.22220000
C       -0.04900000      -2.08550000      -1.22960000
C       -0.00810000      -2.78910000      -0.02950000
C        0.03950000      -2.11970000       1.19510000
C        0.08490000      -2.83880000       2.51790000
C        0.04380000      -0.72830000       1.15210000
F        0.08950000      -0.06170000       2.32190000
H        0.91050000       1.89990000       0.53650000
H       -0.02090000       1.94980000      -0.97080000
H       -0.84510000       1.90740000       0.59790000
H       -0.07460000      -0.14360000      -2.15770000
H       -0.08570000      -2.62210000      -2.17140000
H       -0.01290000      -3.87480000      -0.03390000
H        0.98620000      -2.57900000       3.08330000
H       -0.76920000      -2.56970000       3.14860000
H        0.07370000      -3.92140000       2.37120000
