21
Properties=species:S:1:pos:R:3 gdb_101800=T pbc="F F F"
C        0.09080000       1.29530000      -0.04910000
O        0.00700000      -0.09180000       0.17700000
C       -1.28550000      -0.64860000      -0.00290000
C       -1.68770000      -0.74740000      -1.47780000
C       -1.28550000      -1.99900000       0.69820000
O       -0.42960000      -2.89630000      -0.02620000
C       -0.35980000      -4.15560000       0.45330000
C        0.58770000      -4.98870000      -0.37610000
O       -0.97720000      -4.53860000       1.41480000
H        1.09730000       1.60670000       0.24170000
H       -0.06370000       1.56650000      -1.10360000
H       -0.64020000       1.85130000       0.55980000
H       -2.02540000      -0.02630000       0.53170000
H       -0.96770000      -1.36180000      -2.02250000
H       -2.67860000      -1.20290000      -1.57250000
H       -1.73240000       0.24020000      -1.94350000
H       -0.91530000      -1.89320000       1.72160000
H       -2.29760000      -2.41350000       0.73920000
H        1.59280000      -4.55910000      -0.33610000
H        0.60420000      -6.00840000       0.00650000
H        0.27510000      -4.98580000      -1.42400000
