20
Properties=species:S:1:pos:R:3 gdb_8205=T pbc="F F F"
C       -0.03770000       1.52360000      -0.05370000
C       -0.00810000       0.01600000       0.01010000
C        1.28390000      -0.74430000      -0.27620000
C        0.66040000      -0.78370000       1.10220000
C        1.34630000      -0.23780000       2.32170000
O       -0.12480000      -1.91530000       1.41390000
C       -1.06460000      -2.11930000       0.36200000
C       -1.29210000      -0.74520000      -0.29970000
H        0.90410000       1.96040000       0.29260000
H       -0.19960000       1.87230000      -1.08070000
H       -0.84460000       1.93310000       0.56560000
H        1.26240000      -1.63330000      -0.89840000
H        2.18180000      -0.14550000      -0.39490000
H        1.91730000       0.66220000       2.07980000
H        0.61460000       0.00990000       3.09750000
H        2.03960000      -0.97760000       2.73500000
H       -0.66920000      -2.84200000      -0.36570000
H       -1.97060000      -2.54940000       0.79830000
H       -2.13790000      -0.22140000       0.16120000
H       -1.50270000      -0.83840000      -1.37030000
