21
Properties=species:S:1:pos:R:3 gdb_59215=T pbc="F F F"
C        0.55310000       0.10530000      -1.43990000
C        0.05680000       0.08530000       0.00780000
O        0.10770000       1.38960000       0.58830000
C       -1.35160000      -0.49220000       0.11750000
C       -1.54110000      -2.05250000       0.07700000
C       -1.17950000      -2.05440000       1.59770000
C       -1.95980000      -0.72130000       1.52930000
O       -3.30150000      -1.14560000       1.22670000
C       -3.07000000      -2.11900000       0.17890000
H        1.54770000       0.55620000      -1.49170000
H        0.60570000      -0.90530000      -1.85770000
H       -0.12360000       0.69290000      -2.07290000
H        0.76120000      -0.49760000       0.60930000
H       -0.49230000       1.95500000       0.08860000
H       -2.01830000       0.06930000      -0.55130000
H       -1.05300000      -2.69620000      -0.65460000
H       -1.60660000      -2.84120000       2.22400000
H       -0.11480000      -1.94400000       1.79750000
H       -1.97360000       0.03190000       2.31390000
H       -3.58530000      -1.81360000      -0.73950000
H       -3.44460000      -3.10220000       0.48800000
