15
Properties=species:S:1:pos:R:3 gdb_97264=T pbc="F F F"
C       -0.07920000       1.67290000      -0.35790000
C        0.03460000       0.17520000       0.02060000
N        0.78760000       0.06110000       1.26130000
C        0.33940000      -0.66400000       2.21560000
N        1.03580000      -0.84120000       3.36140000
C       -1.33180000      -0.40770000       0.07640000
N       -2.39300000      -0.84730000       0.20280000
C        0.78440000      -0.53360000      -1.04690000
N        1.38700000      -1.06540000      -1.87600000
H        0.92670000       2.09370000      -0.39570000
H       -0.56980000       1.79690000      -1.32560000
H       -0.65530000       2.18750000       0.41360000
H       -0.61440000      -1.20170000       2.18760000
H        1.88300000      -0.31470000       3.50220000
H        0.59570000      -1.25780000       4.16170000
