19
Properties=species:S:1:pos:R:3 gdb_35777=T pbc="F F F"
C        0.03140000      -1.21770000       0.04690000
C        0.00430000      -0.01600000       0.01280000
C       -0.01520000       1.43980000       0.00790000
C       -0.75980000       1.98790000       1.24260000
O       -0.94580000       3.38730000       1.15380000
C        0.19910000       4.14530000       0.88420000
C        1.46910000       4.02280000       1.67700000
C        1.41510000       3.53520000       0.23340000
C        1.41490000       2.03560000      -0.05160000
H        0.04900000      -2.27920000       0.06260000
H       -0.57440000       1.78950000      -0.87020000
H       -1.76180000       1.55810000       1.30760000
H       -0.21500000       1.70810000       2.15760000
H       -0.10910000       5.13800000       0.57430000
H        2.01870000       4.92960000       1.90470000
H        1.52760000       3.26220000       2.44880000
H        1.92590000       4.14750000      -0.50250000
H        2.04680000       1.50180000       0.66660000
H        1.83880000       1.84020000      -1.04030000
