17
Properties=species:S:1:pos:R:3 gdb_19520=T pbc="F F F"
O        0.35600000       0.96550000       1.05350000
C        0.10950000       0.06860000      -0.02700000
C       -1.27700000      -0.53110000       0.02380000
C       -1.58440000      -1.98240000      -0.21260000
C       -0.46770000      -2.96170000      -0.10510000
C        0.03420000      -2.95270000       1.13070000
C       -0.71560000      -1.96720000       1.99890000
N       -1.76230000      -1.37380000       1.12870000
H       -0.35830000       1.61100000       1.07100000
H        0.23620000       0.57530000      -0.99700000
H        0.88220000      -0.69790000       0.04620000
H       -2.05140000       0.17030000      -0.29360000
H       -2.47980000      -2.25080000      -0.76930000
H       -0.13620000      -3.57770000      -0.93170000
H        0.87360000      -3.53970000       1.48560000
H       -1.20290000      -2.46100000       2.84990000
H       -0.07310000      -1.17790000       2.40560000
