23
Properties=species:S:1:pos:R:3 gdb_58948=T pbc="F F F"
C        0.13860000       1.45410000       0.07120000
C       -0.08540000      -0.06440000      -0.03660000
C       -1.57990000      -0.40680000      -0.12760000
C        0.67650000      -0.61590000      -1.20970000
O        0.25480000      -0.19010000      -2.52250000
C        0.44250000      -1.53560000      -3.03560000
C        1.01450000      -2.01110000      -1.70860000
C        2.11150000      -1.05780000      -1.24850000
C        3.16460000      -0.45480000      -2.15140000
H        1.19980000       1.69090000       0.19500000
H       -0.21580000       1.95790000      -0.83360000
H       -0.40570000       1.86800000       0.92590000
H        0.33150000      -0.54140000       0.86070000
H       -2.01160000       0.01410000      -1.04040000
H       -1.73680000      -1.49000000      -0.14760000
H       -2.12630000      -0.00050000       0.72940000
H       -0.52450000      -1.98920000      -3.28130000
H        1.09210000      -1.55690000      -3.91900000
H        0.84750000      -2.98130000      -1.25880000
H        2.47080000      -1.34190000      -0.26030000
H        2.70900000      -0.01220000      -3.04030000
H        3.70840000       0.34100000      -1.63120000
H        3.89630000      -1.20450000      -2.47130000
