23
Properties=species:S:1:pos:R:3 gdb_101023=T pbc="F F F"
C       -0.44350000       1.20370000      -0.11800000
C       -0.12080000      -0.28690000       0.01430000
C        0.83620000      -0.57300000       1.18370000
O        0.30500000      -0.07110000       2.40010000
C        1.19910000      -2.05790000       1.34660000
C        1.67430000      -2.83370000       0.12110000
C        0.55840000      -3.56720000      -0.63660000
C        1.60430000      -2.50850000       2.68700000
O        0.27420000      -2.76330000       2.20160000
H        0.46060000       1.78440000      -0.33430000
H       -1.15620000       1.38190000      -0.92870000
H       -0.87020000       1.58720000       0.81150000
H       -1.04520000      -0.85820000       0.17000000
H        0.32270000      -0.65220000      -0.91870000
H        1.77080000      -0.01980000       1.01320000
H       -0.32720000      -0.74110000       2.69740000
H        2.20050000      -2.14240000      -0.54840000
H        2.41920000      -3.57070000       0.43910000
H        0.98220000      -4.16580000      -1.44830000
H        0.02110000      -4.23560000       0.04080000
H       -0.16900000      -2.87880000      -1.07340000
H        2.23180000      -3.39330000       2.78080000
H        1.66360000      -1.79250000       3.50190000
