23
Properties=species:S:1:pos:R:3 gdb_75372=T pbc="F F F"
C        0.50860000       1.36770000      -0.01120000
C        0.06750000      -0.06820000      -0.06680000
C       -0.09850000      -0.73450000      -1.21290000
C       -0.59370000      -2.15880000      -1.25230000
C       -0.04630000      -3.00520000      -0.09460000
C        1.48180000      -3.30720000      -0.14260000
C        1.68620000      -2.52970000       1.18500000
C        0.15740000      -2.23720000       1.25740000
C       -0.24020000      -0.75550000       1.24760000
H        1.44030000       1.47640000       0.55940000
H        0.66940000       1.78210000      -1.01050000
H       -0.23800000       1.99140000       0.49850000
H        0.09230000      -0.23470000      -2.16000000
H       -1.69420000      -2.16300000      -1.21440000
H       -0.32940000      -2.63110000      -2.20630000
H       -0.65410000      -3.90790000       0.01370000
H        1.73400000      -4.36970000      -0.09690000
H        1.99370000      -2.87140000      -1.00520000
H        2.07660000      -3.12270000       2.01600000
H        2.30440000      -1.63250000       1.08850000
H       -0.32470000      -2.73380000       2.10430000
H        0.26360000      -0.23880000       2.07490000
H       -1.31790000      -0.66480000       1.45330000
