16
Properties=species:S:1:pos:R:3 gdb_20949=T pbc="F F F"
C       -0.03790000       1.49840000       0.01020000
C       -0.00300000      -0.01810000       0.00250000
O       -1.35160000      -0.48640000       0.01200000
C       -1.54840000      -1.81650000       0.00580000
C       -2.74740000      -2.50080000       0.01040000
C       -2.36330000      -3.85850000       0.00030000
N       -1.04620000      -4.02350000      -0.00990000
N       -0.56100000      -2.75110000      -0.00610000
H        0.98100000       1.89610000       0.00350000
H       -0.56500000       1.87420000      -0.87050000
H       -0.54980000       1.86540000       0.90350000
H        0.51100000      -0.39280000      -0.89470000
H        0.52660000      -0.40140000       0.88690000
H       -3.73370000      -2.06980000       0.01960000
H       -3.00580000      -4.72740000       0.00010000
H        0.43290000      -2.61010000      -0.01260000
