19
Properties=species:S:1:pos:R:3 gdb_117749=T pbc="F F F"
C        0.31290000       1.43400000       0.21840000
O        0.17370000       0.03210000       0.15940000
C        0.79020000      -0.53760000      -0.97480000
C        0.54050000      -2.04420000      -0.92050000
C        1.17540000      -2.72720000       0.30210000
C       -0.97810000      -2.29090000      -0.93470000
O       -1.51590000      -3.22580000      -0.40570000
C        1.07790000      -2.71080000      -2.19030000
O        1.48230000      -2.11810000      -3.15600000
H        1.37080000       1.73340000       0.27280000
H       -0.13920000       1.92430000      -0.65730000
H       -0.19950000       1.77420000       1.12090000
H        0.37040000      -0.12000000      -1.90320000
H        1.87130000      -0.32960000      -0.99020000
H        0.85300000      -2.21570000       1.21070000
H        0.85880000      -3.77030000       0.36340000
H        2.26760000      -2.68650000       0.24760000
H       -1.55330000      -1.53960000      -1.51740000
H        1.06740000      -3.82160000      -2.14850000
