16
Properties=species:S:1:pos:R:3 gdb_90394=T pbc="F F F"
C       -0.20720000       1.55220000      -0.07770000
C        0.04230000       0.06660000       0.04030000
O        1.12230000      -0.44790000      -0.81170000
C        1.65360000      -1.19180000       0.26850000
C        2.20380000      -0.27470000       1.35360000
C        2.82690000       0.99180000       1.09170000
N        3.34190000       2.01040000       0.90130000
C        0.70380000      -0.59290000       1.26040000
O        0.03010000      -1.19260000       2.29470000
H        0.68040000       2.14010000       0.15890000
H       -0.52100000       1.79400000      -1.09780000
H       -1.01940000       1.84230000       0.59810000
H       -0.86780000      -0.50290000      -0.18800000
H        2.02720000      -2.19290000       0.09100000
H        2.65410000      -0.83390000       2.17030000
H       -0.10390000      -0.54580000       2.99760000
