15
Properties=species:S:1:pos:R:3 gdb_77778=T pbc="F F F"
C        0.00670000       1.58230000      -0.04890000
C        0.05920000       0.07330000      -0.08100000
C        0.64070000      -0.76140000      -1.22250000
C        1.91490000      -0.13620000      -1.69160000
N        2.39750000       0.16480000      -2.80290000
O        2.46210000      -0.02340000      -0.40400000
C        1.31510000      -0.71700000       0.14850000
C        1.53600000      -1.72660000       1.12800000
N        1.68940000      -2.54070000       1.93530000
H        0.93590000       2.02470000      -0.41210000
H       -0.81550000       1.94450000      -0.67280000
H       -0.16110000       1.93320000       0.97370000
H       -0.81010000      -0.42510000       0.34400000
H        0.10260000      -1.56210000      -1.70790000
H        3.33550000       0.55910000      -2.71810000
