19
Properties=species:S:1:pos:R:3 gdb_56638=T pbc="F F F"
C        0.22160000       1.38550000       0.28670000
C       -0.04110000      -0.09620000      -0.03600000
C       -1.47850000      -0.35820000      -0.19390000
N       -2.60030000      -0.58300000      -0.36350000
C        0.68640000      -0.58120000      -1.30210000
N        0.36810000       0.02580000      -2.56540000
C        2.12070000      -1.04460000      -1.13370000
C        1.03720000      -2.05480000      -1.36580000
O        0.73960000      -2.89120000      -0.28720000
H        1.29520000       1.54390000       0.42120000
H       -0.12780000       2.03450000      -0.52100000
H       -0.29230000       1.68420000       1.20350000
H        0.29840000      -0.71380000       0.80160000
H       -0.62890000      -0.02810000      -2.75630000
H        0.63640000       1.00480000      -2.59020000
H        2.81040000      -0.83810000      -1.94270000
H        2.54660000      -1.01660000      -0.13660000
H        0.98160000      -2.50960000      -2.35280000
H       -0.17760000      -3.17540000      -0.37340000
