20
Properties=species:S:1:pos:R:3 gdb_91410=T pbc="F F F"
C        0.28620000       1.59390000      -0.04610000
C        0.11630000       0.07640000       0.00610000
N        0.60690000      -0.56600000      -1.23090000
C        1.16970000      -1.90100000      -1.04150000
C        0.45340000      -2.72150000       0.07770000
C        1.33940000      -1.91730000       1.07820000
C        2.38160000      -1.80050000      -0.08330000
C        0.76290000      -0.53260000       1.26770000
O        0.78130000       0.06150000       2.31970000
H        1.33740000       1.85080000      -0.20340000
H       -0.29280000       2.01560000      -0.87320000
H       -0.05110000       2.04220000       0.89080000
H       -0.95750000      -0.14050000       0.15570000
H       -0.14450000      -0.60350000      -1.91000000
H        1.31570000      -2.36350000      -2.01970000
H       -0.63420000      -2.64780000       0.16410000
H        0.74590000      -3.77440000       0.06360000
H        1.63290000      -2.35060000       2.03450000
H        3.01610000      -2.68860000      -0.12400000
H        2.99490000      -0.89860000      -0.14630000
