22
Properties=species:S:1:pos:R:3 gdb_99993=T pbc="F F F"
C        0.14180000       1.34680000       0.07190000
O       -0.06060000      -0.04860000       0.01040000
C       -1.40860000      -0.53060000       0.01390000
C       -2.18880000      -0.05760000       1.24870000
C       -2.13340000      -0.12600000      -1.27830000
C       -1.18860000      -2.08100000       0.03130000
C       -0.39260000      -2.59120000       1.24910000
C       -2.46030000      -2.79960000      -0.08040000
N       -3.46440000      -3.36870000      -0.15080000
H        1.22350000       1.49930000       0.04250000
H       -0.30400000       1.87790000      -0.78000000
H       -0.24490000       1.78820000       1.00000000
H       -2.43210000       1.00580000       1.17780000
H       -3.13230000      -0.60440000       1.33150000
H       -1.61350000      -0.21590000       2.16430000
H       -1.54700000      -0.42360000      -2.15290000
H       -3.11500000      -0.60290000      -1.33840000
H       -2.29000000       0.95510000      -1.32030000
H       -0.60830000      -2.30430000      -0.87200000
H       -0.96360000      -2.48520000       2.17460000
H       -0.15110000      -3.64960000       1.12450000
H        0.53270000      -2.02090000       1.33370000
