18
Properties=species:S:1:pos:R:3 gdb_91993=T pbc="F F F"
O       -0.00540000       1.08880000       1.35060000
C       -0.02950000       0.17280000       0.28450000
C        0.95420000      -1.00950000       0.50140000
C        0.13230000      -2.04740000       1.24220000
N       -0.68540000      -1.45030000       2.32800000
C       -1.30520000      -1.76260000       1.02240000
C       -1.42570000      -0.53720000       0.11730000
C       -2.57740000       0.31000000       0.38260000
C       -3.54950000       0.98460000       0.59210000
H       -0.25270000       0.57600000       2.13630000
H        0.21400000       0.74490000      -0.61370000
H        1.28860000      -1.42630000      -0.45620000
H        1.83410000      -0.66780000       1.05300000
H        0.50000000      -3.06040000       1.36840000
H       -0.93850000      -2.15940000       3.01000000
H       -2.05900000      -2.54080000       0.97350000
H       -1.48960000      -0.90910000      -0.91550000
H       -4.39600000       1.59640000       0.78270000
