21
Properties=species:S:1:pos:R:3 gdb_117822=T pbc="F F F"
C       -0.34780000       1.30060000      -0.00760000
O       -0.16100000      -0.10060000      -0.03130000
C        0.62980000      -0.62030000      -1.10000000
C        2.01380000       0.02990000      -1.21010000
C        0.79110000      -2.12700000      -0.79010000
C       -0.51260000      -2.87720000      -0.56110000
O       -1.21610000      -2.92570000      -1.79770000
C       -0.14380000      -0.44330000      -2.42030000
O        0.37670000      -0.39190000      -3.50410000
H        0.56400000       1.83750000       0.28560000
H       -0.68470000       1.69800000      -0.97620000
H       -1.12330000       1.50010000       0.73610000
H        2.56670000      -0.09410000      -0.27470000
H        2.56910000      -0.44080000      -2.02360000
H        1.94650000       1.09560000      -1.44200000
H        1.33550000      -2.59610000      -1.61620000
H        1.40850000      -2.21380000       0.11110000
H       -0.28390000      -3.89270000      -0.20290000
H       -1.09840000      -2.36590000       0.21240000
H       -2.11900000      -3.20820000      -1.62710000
H       -1.24130000      -0.35710000      -2.28300000
