18
Properties=species:S:1:pos:R:3 gdb_97754=T pbc="F F F"
C       -0.50650000       1.45440000       0.15540000
C        0.63040000       0.48340000      -0.21190000
C        1.06680000      -0.34320000       0.90730000
C        1.40870000      -1.02130000       1.84270000
C        1.83470000      -1.82490000       2.96550000
C        1.40230000      -1.38490000       4.39150000
C        0.67010000      -2.70800000       4.41040000
N       -0.03130000      -3.31530000       5.25210000
O        1.04680000      -3.06590000       3.13180000
H       -0.19230000       2.13970000       0.94720000
H       -0.79660000       2.04610000      -0.71760000
H       -1.38450000       0.90800000       0.50960000
H        0.30760000      -0.17050000      -1.03210000
H        1.48920000       1.04710000      -0.59810000
H        2.89320000      -2.09020000       2.88670000
H        2.20620000      -1.28630000       5.12190000
H        0.75780000      -0.50650000       4.42410000
H       -0.35690000      -4.21200000       4.88700000
