17
Properties=species:S:1:pos:R:3 gdb_13537=T pbc="F F F"
C       -0.28660000       1.33600000       0.07060000
C        0.11810000      -0.13940000      -0.11800000
C        0.91990000      -0.29490000      -1.33970000
N        1.56070000      -0.39350000      -2.29640000
C        0.88240000      -0.68750000       1.08140000
C        0.12510000      -1.07350000       2.33710000
C        0.75480000      -2.13250000       1.46470000
O       -0.06720000      -2.91590000       0.65070000
H        0.59620000       1.96820000       0.20110000
H       -0.84410000       1.70290000      -0.79470000
H       -0.91430000       1.43260000       0.96020000
H       -0.78150000      -0.74920000      -0.25190000
H        1.86150000      -0.23970000       1.22300000
H        0.56170000      -0.84690000       3.30340000
H       -0.95790000      -1.00550000       2.29920000
H        1.65030000      -2.63340000       1.83020000
H       -0.51380000      -3.56210000       1.20730000
