13
Properties=species:S:1:pos:R:3 gdb_15480=T pbc="F F F"
O       -0.01040000       0.06600000      -0.43150000
C        0.01040000       1.21440000      -0.11630000
O       -1.09630000       1.94690000       0.14260000
C       -0.76470000       3.29380000       0.52720000
C        0.65000000       3.53810000      -0.01540000
C        1.26140000       2.12450000       0.04650000
C        1.92240000       1.84730000       1.31960000
N        2.43570000       1.65550000       2.33700000
H       -1.51800000       3.95540000       0.09730000
H       -0.80560000       3.36500000       1.61920000
H        0.60800000       3.86400000      -1.05780000
H        1.20300000       4.27970000       0.56130000
H        1.95620000       1.90830000      -0.76750000
