20
Properties=species:S:1:pos:R:3 gdb_115779=T pbc="F F F"
O       -0.02350000       1.31180000      -0.15390000
C        0.02900000      -0.10000000      -0.28960000
C       -1.32690000      -0.64970000       0.11990000
C       -2.46570000      -0.32610000      -0.88990000
C       -2.31980000      -1.75350000      -1.48730000
C       -1.54720000      -2.16370000      -0.20770000
N       -0.41980000      -3.05760000      -0.34020000
C       -0.18590000      -4.10650000       0.49770000
O       -0.86110000      -4.40000000       1.46040000
H        0.84130000       1.66950000      -0.37490000
H        0.26030000      -0.38400000      -1.33180000
H        0.81270000      -0.53710000       0.34830000
H       -1.51350000      -0.36610000       1.15890000
H       -3.42820000      -0.18110000      -0.39430000
H       -2.28660000       0.51900000      -1.55630000
H       -3.22730000      -2.31400000      -1.72200000
H       -1.67380000      -1.76270000      -2.37160000
H       -2.20480000      -2.61710000       0.53470000
H        0.20740000      -2.93400000      -1.11950000
H        0.71330000      -4.67930000       0.19330000
