16
Properties=species:S:1:pos:R:3 gdb_30224=T pbc="F F F"
N       -0.08160000       1.50330000      -0.08940000
C       -0.06030000       0.10350000      -0.11500000
C       -1.02260000      -0.86160000       0.16410000
N       -0.57710000      -2.14930000      -0.09710000
C        0.63290000      -1.94510000      -0.55130000
C        2.03450000      -2.44130000      -0.88790000
O        2.24820000      -3.19300000      -2.04750000
C        2.40700000      -0.88820000      -0.91900000
N        0.98340000      -0.63150000      -0.61640000
H        0.63920000       1.89910000       0.50570000
H       -0.97970000       1.84380000       0.23090000
H       -2.02560000      -0.68160000       0.52390000
H        2.54500000      -2.97240000      -0.07980000
H        1.59930000      -2.91860000      -2.70530000
H        3.09590000      -0.55700000      -0.13690000
H        2.72870000      -0.51410000      -1.89400000
