17
Properties=species:S:1:pos:R:3 gdb_45083=T pbc="F F F"
N       -0.00950000       1.06280000      -0.87190000
C       -0.09290000       0.10020000      -0.05600000
O        0.90420000      -0.17720000       0.85020000
C        1.16720000      -1.52330000       1.18300000
C        0.65400000      -2.03950000       2.49620000
C        0.00220000      -2.47140000       1.20160000
N       -1.29060000      -2.01060000       0.74780000
C       -1.96530000      -0.89050000       1.37380000
C       -1.32290000      -0.72890000       0.02930000
H        0.89780000       1.52380000      -0.77810000
H        2.13640000      -1.84490000       0.81390000
H        1.24850000      -2.77510000       3.02640000
H        0.13590000      -1.33410000       3.13490000
H        0.19400000      -3.49080000       0.88130000
H       -3.04580000      -0.98150000       1.43920000
H       -1.50050000      -0.37250000       2.20830000
H       -1.93490000      -0.69640000      -0.86500000
