20
Properties=species:S:1:pos:R:3 gdb_92017=T pbc="F F F"
C        0.06290000       1.54950000       0.04650000
C       -0.00840000       0.01710000       0.00520000
C        0.64500000      -0.53490000      -1.28170000
C        0.71180000      -2.05590000      -1.31340000
N        2.03760000      -2.66680000      -1.08720000
C        1.00420000      -2.77360000      -0.04450000
C        1.16760000      -1.96280000       1.21100000
O        2.04140000      -0.83490000       1.17350000
C        0.63200000      -0.59010000       1.24210000
H        1.10490000       1.88570000       0.06780000
H       -0.41540000       1.98840000      -0.83510000
H       -0.43840000       1.94960000       0.93400000
H       -1.06810000      -0.28070000       0.02250000
H        0.08780000      -0.16410000      -2.14830000
H        1.66320000      -0.14280000      -1.35330000
H        0.04970000      -2.55440000      -2.01740000
H        2.10320000      -3.55010000      -1.58710000
H        0.53880000      -3.74370000       0.11810000
H        1.21530000      -2.53120000       2.14020000
H        0.29290000      -0.18530000       2.19740000
