21
Properties=species:S:1:pos:R:3 gdb_68488=T pbc="F F F"
O       -0.00410000       1.43450000      -0.06810000
C        0.00030000       0.02650000       0.04130000
C        0.24260000      -0.62760000       1.43250000
C       -0.93770000      -1.59610000       1.11630000
C       -1.43000000      -0.55680000       0.06710000
C       -0.49950000      -2.94010000       0.52050000
C        0.22040000      -2.84860000      -0.83360000
O        1.29380000      -1.92010000      -0.84330000
C        0.91270000      -0.57470000      -1.04640000
H        0.90430000       1.74890000       0.00380000
H        1.22380000      -1.06820000       1.62330000
H       -0.01620000       0.07650000       2.22730000
H       -1.61880000      -1.77820000       1.95080000
H       -2.10780000       0.17400000       0.51430000
H       -1.86190000      -0.91320000      -0.87240000
H        0.15590000      -3.44750000       1.23950000
H       -1.37590000      -3.58740000       0.38310000
H        0.65840000      -3.82140000      -1.08020000
H       -0.49280000      -2.60230000      -1.63560000
H        0.43180000      -0.44580000      -2.03040000
H        1.85440000      -0.01130000      -1.05920000
