17
Properties=species:S:1:pos:R:3 gdb_44069=T pbc="F F F"
O       -0.03890000       0.03100000       0.14200000
C        0.00730000       1.22980000       0.08030000
C       -1.13320000       2.25120000       0.14290000
C       -0.30870000       3.56450000       0.07280000
C       -0.90420000       4.51320000      -1.00870000
O       -0.27210000       3.64570000      -2.03850000
C        0.70080000       3.30300000      -0.98830000
C        1.21330000       2.13000000      -0.06780000
C        0.85330000       3.24050000       1.08020000
H       -1.80120000       2.11880000      -0.71130000
H       -1.71530000       2.16020000       1.06520000
H       -1.98990000       4.54440000      -1.12580000
H       -0.47320000       5.52000000      -1.04120000
H        1.49790000       4.05500000      -1.04060000
H        2.19650000       1.67010000      -0.14910000
H        1.63110000       4.00070000       1.15650000
H        0.59760000       2.84540000       2.06650000
