11
Properties=species:S:1:pos:R:3 gdb_129316=T pbc="F F F"
N       -0.15750000       1.33560000       0.07260000
C       -0.03130000       0.09070000      -0.02490000
O        1.22320000      -0.52920000      -0.04190000
N        1.61730000      -1.53040000      -1.01610000
N        0.87370000      -1.86110000      -1.92250000
C       -0.52070000      -1.55000000      -2.14740000
O       -0.94200000      -1.39750000      -3.25550000
C       -1.36840000      -1.56370000      -0.90520000
N       -1.13430000      -0.77690000       0.06110000
H        0.74720000       1.79990000      -0.01000000
H       -2.23570000      -2.22300000      -0.87980000
