16
Properties=species:S:1:pos:R:3 gdb_14848=T pbc="F F F"
C       -0.46040000       1.17750000      -0.15270000
O        0.42350000       0.10700000       0.14130000
C        0.94840000      -0.52410000      -0.97890000
C        2.01290000      -1.57460000      -0.59650000
N        1.05070000      -2.66360000      -0.88330000
C        0.12400000      -1.74120000      -1.56900000
C       -1.27840000      -1.87260000      -1.17600000
N       -2.39420000      -1.95950000      -0.88670000
H        0.03930000       1.94370000      -0.76430000
H       -1.36190000       0.83390000      -0.67400000
H       -0.75150000       1.61620000       0.80340000
H        1.24220000       0.20480000      -1.74530000
H        2.89700000      -1.54540000      -1.24550000
H        2.32820000      -1.52960000       0.44970000
H        1.39060000      -3.43010000      -1.45120000
H        0.17640000      -1.75770000      -2.66640000
