15
Properties=species:S:1:pos:R:3 gdb_3122=T pbc="F F F"
O       -0.14060000       0.00790000       0.07380000
C       -0.01090000       1.20540000      -0.03780000
C        1.26970000       1.91200000       0.00640000
C        1.36560000       3.38730000       0.33960000
C        1.77070000       2.97400000      -1.02770000
C        3.15110000       2.30560000      -1.02920000
C        2.65350000       1.25950000       0.02120000
H       -0.89240000       1.86890000      -0.20640000
H        0.41480000       3.90700000       0.41360000
H        2.10690000       3.70180000       1.07060000
H        1.23680000       3.32030000      -1.90450000
H        3.39790000       1.84520000      -1.98750000
H        3.98170000       2.95160000      -0.72760000
H        3.16220000       1.25360000       0.98950000
H        2.62670000       0.24120000      -0.36850000
