20
Properties=species:S:1:pos:R:3 gdb_92874=T pbc="F F F"
C       -0.10560000       1.60920000      -0.06720000
C        0.02350000       0.07880000       0.00390000
N        0.69740000      -0.44850000      -1.19130000
C        2.05900000      -0.41190000      -1.24970000
C        2.86060000      -0.23880000      -0.16900000
C        2.29170000      -0.13900000       1.16520000
O        2.94340000       0.09100000       2.17080000
C        0.77980000      -0.44250000       1.24470000
C        0.17300000       0.00460000       2.57380000
H        0.87710000       2.08950000      -0.07580000
H       -0.63810000       1.90250000      -0.97800000
H       -0.66990000       1.99570000       0.78510000
H       -0.98360000      -0.35400000       0.01960000
H        0.20820000      -0.32780000      -2.06450000
H        2.47730000      -0.54930000      -2.24330000
H        3.93670000      -0.20760000      -0.27790000
H        0.71850000      -1.54070000       1.18650000
H        0.26580000       1.08450000       2.71660000
H       -0.88680000      -0.26480000       2.63440000
H        0.70450000      -0.47080000       3.39960000
