21
Properties=species:S:1:pos:R:3 gdb_31224=T pbc="F F F"
C       -0.43620000       1.74660000      -0.29570000
C       -0.00780000       0.29920000       0.00380000
C        0.81280000      -0.31360000      -1.07990000
C        2.09670000      -0.77330000      -1.15630000
C        3.12800000      -0.82370000      -0.06630000
C        3.43860000      -2.25230000       0.41230000
C        2.26750000      -1.23320000      -2.51120000
C        1.08950000      -1.01590000      -3.14390000
O        0.19040000      -0.45740000      -2.29160000
H        0.43650000       2.39690000      -0.40970000
H       -1.01350000       1.79360000      -1.22290000
H       -1.05640000       2.14340000       0.51390000
H        0.56860000       0.26410000       0.93340000
H       -0.90360000      -0.31310000       0.17260000
H        4.05600000      -0.35700000      -0.42110000
H        2.79500000      -0.22090000       0.78570000
H        2.54210000      -2.73160000       0.81770000
H        3.80090000      -2.87460000      -0.41220000
H        4.20660000      -2.24630000       1.19250000
H        3.15890000      -1.66270000      -2.94310000
H        0.73910000      -1.18840000      -4.14830000
