14
Properties=species:S:1:pos:R:3 gdb_127515=T pbc="F F F"
C        0.04190000       1.36250000      -0.03930000
N        0.05020000      -0.08370000       0.03540000
N        0.17470000      -0.81550000      -1.08780000
C        0.14660000      -2.08310000      -0.68270000
O        0.24780000      -3.10580000      -1.54920000
C        0.00350000      -2.19850000       0.70900000
C       -0.05560000      -0.87910000       1.13850000
C       -0.19680000      -0.35070000       2.44370000
N       -0.31200000       0.09520000       3.50670000
H        0.97820000       1.71920000      -0.47630000
H       -0.79260000       1.69970000      -0.65950000
H       -0.06670000       1.76530000       0.96810000
H        0.33550000      -2.72910000      -2.43400000
H       -0.04920000      -3.08880000       1.31080000
