20
Properties=species:S:1:pos:R:3 gdb_112046=T pbc="F F F"
C        0.12820000       1.62190000       0.08180000
C        0.07080000       0.09270000       0.07940000
C        0.60140000      -0.51880000      -1.22320000
N        2.02360000      -0.16980000      -1.43580000
C        2.64310000      -1.26800000      -1.55280000
O        1.96870000      -2.43880000      -1.48370000
C        0.59690000      -2.05970000      -1.28150000
C       -0.22380000      -3.00170000      -0.45940000
C       -0.42590000      -2.90830000      -1.96330000
H        1.15450000       1.96880000      -0.06050000
H       -0.48070000       2.04030000      -0.72760000
H       -0.24860000       2.02650000       1.02600000
H        0.65090000      -0.31060000       0.91810000
H       -0.96530000      -0.23860000       0.22510000
H        0.02210000      -0.10600000      -2.06040000
H        3.71070000      -1.37730000      -1.71000000
H        0.27860000      -3.88390000      -0.07890000
H       -0.98420000      -2.59320000       0.19640000
H       -1.32050000      -2.41950000      -2.33690000
H       -0.06730000      -3.73180000      -2.57050000
