18
Properties=species:S:1:pos:R:3 gdb_100450=T pbc="F F F"
C        0.07080000       1.53470000      -0.16900000
C        0.01300000       0.00690000      -0.13570000
C       -1.41340000      -0.52130000       0.11790000
O       -2.34410000      -0.06060000      -0.85850000
C       -1.42460000      -1.98330000       0.22960000
C       -1.41430000      -3.18810000       0.28850000
C       -1.35120000      -4.63790000       0.41520000
N       -2.37800000      -5.29000000      -0.20780000
O       -0.45490000      -5.20780000       1.00610000
H        1.08260000       1.88080000      -0.39800000
H       -0.61080000       1.93220000      -0.92510000
H       -0.21810000       1.96130000       0.79790000
H        0.37170000      -0.41330000      -1.08430000
H        0.67050000      -0.39130000       0.64500000
H       -1.77810000      -0.09950000       1.06360000
H       -2.11340000      -0.47740000      -1.69670000
H       -3.17350000      -4.78660000      -0.56070000
H       -2.44680000      -6.28650000      -0.07760000
