22
Properties=species:S:1:pos:R:3 gdb_98269=T pbc="F F F"
C       -0.79700000       1.45680000       0.46990000
N       -1.11500000       0.04510000       0.53310000
C       -0.78380000      -0.82120000      -0.46230000
O       -0.19060000      -0.49230000      -1.47760000
C       -1.16200000      -2.29290000      -0.21500000
C        0.00500000      -2.99160000       0.50870000
C       -2.53130000      -2.49290000       0.47530000
C       -3.05310000      -3.92590000       0.38100000
O       -2.52650000      -2.04750000       1.84230000
H       -0.14530000       1.75700000       1.29870000
H       -0.27860000       1.63540000      -0.47290000
H       -1.70320000       2.07260000       0.50280000
H       -1.60800000      -0.32990000       1.33250000
H       -1.24040000      -2.71760000      -1.22080000
H        0.93190000      -2.82550000      -0.04540000
H        0.15020000      -2.58990000       1.51750000
H       -0.15030000      -4.07200000       0.58450000
H       -3.25370000      -1.82810000      -0.01130000
H       -2.37910000      -4.63420000       0.87610000
H       -4.03240000      -3.99790000       0.86180000
H       -3.15530000      -4.23700000      -0.66310000
H       -1.99400000      -2.66750000       2.35290000
