17
Properties=species:S:1:pos:R:3 gdb_103031=T pbc="F F F"
C        0.02660000       1.40090000      -0.08020000
O       -0.02490000       0.00950000       0.19570000
C       -1.29410000      -0.56650000       0.08070000
C       -2.26220000      -0.00960000       1.01770000
C       -3.00200000       0.50740000       1.81160000
C       -1.84660000      -0.95040000      -1.34930000
C       -0.68930000      -1.96280000      -1.50980000
C       -1.29520000      -2.11610000      -0.09540000
O       -2.64390000      -2.00030000      -0.68690000
H        1.06550000       1.70650000       0.05750000
H       -0.27630000       1.61790000      -1.11450000
H       -0.61460000       1.96960000       0.60360000
H       -3.67340000       0.94190000       2.51060000
H       -2.35140000      -0.32630000      -2.08630000
H       -0.91240000      -2.79070000      -2.18250000
H        0.32790000      -1.58350000      -1.59530000
H       -1.13680000      -2.87860000       0.66640000
