19
Properties=species:S:1:pos:R:3 gdb_75900=T pbc="F F F"
C        0.20960000       1.58200000      -0.23350000
C       -0.02200000       0.10110000       0.10050000
C        0.46010000      -0.76530000      -1.06520000
O       -0.04480000      -0.90350000      -2.13990000
O        1.64040000      -1.36460000      -0.73370000
C        2.04100000      -0.98720000       0.58540000
C        0.76780000      -0.47330000       1.29080000
C        1.05940000       0.46680000       2.45520000
O       -0.02220000      -1.58230000       1.72500000
H        1.27150000       1.81090000      -0.37420000
H       -0.30890000       1.82790000      -1.16350000
H       -0.17680000       2.22920000       0.55810000
H       -1.08790000      -0.08060000       0.25150000
H        2.46040000      -1.86700000       1.08230000
H        2.81730000      -0.21480000       0.52110000
H        1.61620000       1.35330000       2.14100000
H        0.12510000       0.78610000       2.92460000
H        1.65870000      -0.04820000       3.21620000
H        0.46360000      -2.05130000       2.41230000
