17
Properties=species:S:1:pos:R:3 gdb_36047=T pbc="F F F"
N       -0.15000000      -1.14860000       0.06670000
C       -0.07280000       0.00390000       0.06840000
C        0.02680000       1.45990000       0.09210000
C        1.46260000       1.99030000       0.06000000
C        2.59420000       1.15840000       0.49370000
O        2.31660000       1.37710000      -0.90030000
C        1.53510000       3.49140000       0.11490000
C        2.70920000       4.21080000      -0.42650000
N        1.41810000       4.26130000      -1.13870000
H       -0.52070000       1.86860000      -0.76540000
H       -0.47760000       1.83290000       0.99120000
H        3.49130000       1.64720000       0.86710000
H        2.42290000       0.14100000       0.83730000
H        0.98900000       3.93370000       0.94630000
H        3.02020000       5.14620000       0.02870000
H        3.50390000       3.61400000      -0.86290000
H        1.46820000       3.61370000      -1.92420000
