18
Properties=species:S:1:pos:R:3 gdb_99194=T pbc="F F F"
C       -0.14630000       1.36620000      -0.22120000
C       -0.05890000      -0.06960000       0.00300000
C        0.02420000      -1.25800000       0.17640000
C        0.11400000      -2.69540000       0.41290000
N       -1.19850000      -3.32720000       0.48620000
C       -1.48120000      -4.47970000      -0.18940000
O       -0.65350000      -5.10660000      -0.81700000
C       -2.96020000      -4.88190000      -0.12670000
O       -3.04840000      -6.28260000      -0.20420000
H        0.62130000       1.70280000      -0.92660000
H       -1.12090000       1.64300000      -0.63790000
H       -0.01130000       1.92700000       0.71010000
H        0.64850000      -3.20490000      -0.39540000
H        0.68310000      -2.88650000       1.33360000
H       -1.92410000      -2.84760000       0.99320000
H       -3.41930000      -4.48830000       0.79580000
H       -3.45830000      -4.38540000      -0.97550000
H       -3.95560000      -6.51360000      -0.42150000
