14
Properties=species:S:1:pos:R:3 gdb_4093=T pbc="F F F"
O       -0.04100000       1.31290000      -0.18360000
N        0.01350000      -0.06850000      -0.12690000
C       -1.11640000      -0.62830000       0.06070000
C       -1.23930000      -2.13000000       0.15450000
C       -2.73930000      -2.38840000      -0.12040000
N       -3.34960000      -1.10490000       0.18490000
C       -2.49780000      -0.02420000       0.19020000
O       -2.82480000       1.13650000       0.28490000
H        0.88160000       1.54490000      -0.34020000
H       -0.58140000      -2.65170000      -0.54190000
H       -0.98360000      -2.46180000       1.16710000
H       -2.90720000      -2.67630000      -1.16730000
H       -3.14530000      -3.18200000       0.51380000
H       -4.34350000      -0.94490000       0.13390000
