19
Properties=species:S:1:pos:R:3 gdb_128293=T pbc="F F F"
C       -0.02230000       1.45040000      -0.13280000
N       -0.16690000       0.00300000      -0.15160000
C        0.54100000      -0.70270000      -1.11440000
N        1.10660000      -0.12900000      -2.17280000
N        1.67170000      -1.15590000      -2.86030000
C        2.28240000      -0.90160000      -4.14000000
C        1.44430000      -2.35740000      -2.26480000
C        0.71960000      -2.11230000      -1.11770000
N        0.29010000      -2.97170000      -0.07730000
H        1.01910000       1.78470000      -0.01120000
H       -0.38910000       1.86260000      -1.07620000
H       -0.62610000       1.85660000       0.68270000
H       -0.07050000      -0.43020000       0.75810000
H        2.93070000      -1.74120000      -4.40150000
H        1.53390000      -0.77110000      -4.93160000
H        2.88320000       0.00880000      -4.07740000
H        1.81900000      -3.27760000      -2.68650000
H        0.64350000      -3.91330000      -0.19730000
H       -0.72370000      -3.02580000      -0.03520000
