14
Properties=species:S:1:pos:R:3 gdb_133150=T pbc="F F F"
C       -0.03700000       1.57010000      -0.03200000
C        0.00540000       0.07140000      -0.03790000
C       -0.11360000      -0.70890000      -1.16460000
F       -0.27960000      -0.14490000      -2.35920000
C       -0.06220000      -2.10390000      -1.07470000
N        0.10070000      -2.72910000       0.08070000
N        0.22010000      -2.01220000       1.19670000
C        0.17450000      -0.68790000       1.13660000
O        0.30150000      -0.02410000       2.30020000
H        0.88900000       1.98030000       0.38340000
H       -0.17450000       1.95950000      -1.04120000
H       -0.85380000       1.93020000       0.60160000
H       -0.15600000      -2.71830000      -1.96340000
H        0.40660000      -0.70380000       2.98300000
