14
Properties=species:S:1:pos:R:3 gdb_7943=T pbc="F F F"
N        0.06020000       1.46490000       0.24340000
C       -0.03620000       0.03940000      -0.03210000
C       -1.47530000      -0.48220000      -0.17750000
C       -1.43760000      -1.47340000      -1.33810000
O       -2.30150000      -2.22570000      -1.70540000
N       -0.18860000      -1.33430000      -1.94420000
C        0.66000000      -0.42420000      -1.32910000
O        1.73570000      -0.06890000      -1.74050000
H        1.04270000       1.72850000       0.24740000
H       -0.36040000       1.98990000      -0.52010000
H        0.46980000      -0.49050000       0.78510000
H       -1.87650000      -0.95980000       0.71750000
H       -2.16250000       0.32870000      -0.44370000
H        0.05580000      -1.83080000      -2.79050000
