25
Properties=species:S:1:pos:R:3 gdb_115003=T pbc="F F F"
C       -0.07830000       1.72700000      -0.40970000
C       -0.26980000       0.20640000      -0.44910000
C        0.90130000      -0.53410000      -1.10150000
C        2.25330000      -0.41780000      -0.34940000
C        2.96650000      -1.68910000      -0.74020000
C        2.13640000      -2.57040000      -1.29220000
C        0.70230000      -2.07280000      -1.35390000
C       -0.12170000      -2.77230000      -0.25050000
C        0.04780000      -2.33900000      -2.71860000
H        0.80370000       2.00550000       0.17630000
H        0.05310000       2.13530000      -1.41820000
H       -0.94400000       2.22340000       0.04000000
H       -0.42140000      -0.16450000       0.57210000
H       -1.19360000      -0.02100000      -0.99710000
H        1.05960000      -0.08950000      -2.09410000
H        2.80790000       0.48680000      -0.62330000
H        2.11010000      -0.36820000       0.74130000
H        4.02250000      -1.85300000      -0.55310000
H        2.40650000      -3.56900000      -1.62300000
H        0.28700000      -2.57340000       0.74490000
H       -1.16760000      -2.44770000      -0.26290000
H       -0.11100000      -3.85760000      -0.39960000
H       -0.06380000      -3.41390000      -2.90160000
H       -0.95210000      -1.89270000      -2.77030000
H        0.64750000      -1.92030000      -3.53310000
