15
Properties=species:S:1:pos:R:3 gdb_15292=T pbc="F F F"
O       -0.15840000       0.11990000      -0.60670000
C       -0.04130000       1.20950000      -0.10480000
C        1.24750000       1.92780000       0.03380000
C        1.24520000       3.45270000      -0.01540000
C        1.57270000       2.77010000       1.26670000
C        0.63930000       2.83840000       2.46960000
C        0.93810000       3.99790000       3.31220000
N        1.18840000       4.91490000       3.96870000
H       -0.93340000       1.76060000       0.27530000
H        2.08180000       1.40490000      -0.42060000
H        2.03360000       3.93670000      -0.57900000
H        0.27490000       3.93390000      -0.09700000
H        2.62190000       2.74450000       1.54360000
H       -0.40810000       2.90330000       2.15890000
H        0.73080000       1.93270000       3.08040000
