20
Properties=species:S:1:pos:R:3 gdb_39662=T pbc="F F F"
C       -0.05840000       1.47950000      -0.13300000
C        1.49230000       1.48820000      -0.05830000
C        1.42650000       0.07350000       0.58400000
C       -0.02560000      -0.06350000       0.03980000
C        2.47160000      -0.96140000       0.21320000
C        2.18050000      -2.40820000       0.70380000
N        2.15640000      -3.23830000      -0.51390000
C        2.35320000      -2.43710000      -1.47420000
O        2.53980000      -1.11740000      -1.23680000
H       -0.50910000       1.97460000       0.73190000
H       -0.52220000       1.87460000      -1.03940000
H        1.94360000       1.44160000      -1.05270000
H        1.97550000       2.28380000       0.51400000
H        1.41650000       0.15280000       1.67780000
H       -0.77410000      -0.52260000       0.68960000
H       -0.03600000      -0.57330000      -0.92700000
H        3.46230000      -0.61590000       0.53100000
H        2.94560000      -2.77870000       1.39280000
H        1.21480000      -2.48140000       1.21760000
H        2.38810000      -2.71090000      -2.52330000
