19
Properties=species:S:1:pos:R:3 gdb_91463=T pbc="F F F"
O       -0.13670000       1.39370000      -0.04250000
C        0.01770000      -0.02740000       0.00260000
C        0.61540000      -0.55080000       1.33860000
C       -0.57060000      -1.37350000       1.94940000
C       -1.76670000      -0.48800000       1.53210000
C       -1.43780000      -0.60770000       0.01680000
O       -2.28260000      -0.01280000      -0.92050000
C       -1.29640000      -2.11220000      -0.11640000
C       -0.78660000      -2.57160000       1.02890000
H        0.70260000       1.78920000      -0.29290000
H        0.56870000      -0.36990000      -0.88030000
H        1.51430000      -1.15610000       1.19990000
H        0.86820000       0.30260000       1.97500000
H       -0.45570000      -1.59810000       3.00990000
H       -2.73770000      -0.92530000       1.77130000
H       -1.70620000       0.53950000       1.90290000
H       -2.01370000       0.91480000      -0.96020000
H       -1.50010000      -2.64580000      -1.03570000
H       -0.47360000      -3.58420000       1.25140000
