17
Properties=species:S:1:pos:R:3 gdb_8342=T pbc="F F F"
N       -0.04800000      -1.14670000      -0.00600000
C       -0.02660000       0.00870000       0.00090000
C        0.03260000       1.47000000       0.00930000
C        1.45980000       1.99220000      -0.00140000
C        2.54930000       1.75750000      -1.09010000
C        3.20960000       2.66720000      -0.01440000
C        1.88890000       3.48980000       0.00470000
C        2.57100000       1.74260000       1.06170000
H       -0.51340000       1.84760000      -0.86370000
H       -0.49620000       1.83680000       0.89720000
H        2.93540000       0.73920000      -1.18050000
H        2.36520000       2.20800000      -2.06960000
H        4.22530000       3.06040000      -0.02190000
H        1.65590000       4.06900000      -0.89350000
H        1.67410000       4.05640000       0.91530000
H        2.40680000       2.17940000       2.05090000
H        2.95860000       0.72320000       1.13010000
