19
Properties=species:S:1:pos:R:3 gdb_84044=T pbc="F F F"
O       -0.00910000       1.38560000       0.02490000
C       -0.04330000       0.00130000      -0.01870000
C       -0.46900000      -0.75610000       1.21680000
O       -0.81850000       0.07250000       2.28320000
C       -1.98920000      -0.34310000       2.98840000
C       -3.28060000       0.13310000       2.32400000
C       -3.50990000      -0.40600000       0.91110000
O       -2.51410000       0.04260000      -0.00350000
C       -1.36670000      -0.73890000      -0.02130000
H       -0.48130000       1.64360000       0.82720000
H        0.76160000      -0.40140000      -0.62500000
H        0.02950000      -1.68300000       1.50220000
H       -1.98610000      -1.43770000       3.09730000
H       -1.90200000       0.09150000       3.98940000
H       -4.12780000      -0.16090000       2.95860000
H       -3.27380000       1.22870000       2.28220000
H       -3.55750000      -1.50570000       0.91510000
H       -4.46380000      -0.03330000       0.52380000
H       -1.44430000      -1.66410000      -0.59580000
