21
Properties=species:S:1:pos:R:3 gdb_104874=T pbc="F F F"
O        0.17530000       1.40730000       0.08300000
C        0.06120000      -0.00040000       0.01030000
C       -1.39840000      -0.49920000      -0.00550000
C       -2.10060000      -0.02730000      -1.30000000
O       -2.18000000       1.39480000      -1.43240000
C       -1.48680000      -2.05150000       0.09130000
C       -2.64950000      -2.36130000       1.07190000
C       -2.84740000      -1.04970000       1.79280000
C       -2.17040000      -0.05420000       1.22400000
H       -0.40980000       1.76400000      -0.60030000
H        0.58500000      -0.40340000      -0.87540000
H        0.56950000      -0.39950000       0.89540000
H       -1.52940000      -0.36580000      -2.17180000
H       -3.10370000      -0.47220000      -1.36340000
H       -2.78110000       1.71670000      -0.75160000
H       -1.62570000      -2.52280000      -0.88670000
H       -0.54730000      -2.44000000       0.49800000
H       -3.56560000      -2.66430000       0.54610000
H       -2.40830000      -3.18460000       1.75370000
H       -3.48270000      -0.95410000       2.66720000
H       -2.14170000       0.97160000       1.57340000
