19
Properties=species:S:1:pos:R:3 gdb_47734=T pbc="F F F"
O       -0.00730000       0.10780000       0.56690000
C        0.01350000       1.24060000       0.13410000
C       -1.30120000       1.96180000      -0.17700000
O       -1.20200000       3.05650000      -1.06100000
C       -0.17860000       3.96480000      -0.68560000
C        1.18760000       3.30420000      -0.85140000
C        1.27610000       2.03380000      -0.01620000
C        2.15140000       2.01530000       1.24350000
C        2.56870000       1.24830000       0.03350000
H       -1.99820000       1.24270000      -0.61340000
H       -1.71780000       2.27830000       0.79750000
H       -0.28170000       4.83230000      -1.34310000
H       -0.32660000       4.30370000       0.35390000
H        1.31920000       3.06260000      -1.91330000
H        1.98790000       4.00130000      -0.57680000
H        2.66840000       2.93740000       1.48700000
H        1.77560000       1.45390000       2.09100000
H        2.46790000       0.16980000       0.06610000
H        3.38980000       1.62930000      -0.56430000
