21
Properties=species:S:1:pos:R:3 gdb_101303=T pbc="F F F"
C        1.84700000       0.89210000      -0.62020000
C        1.34350000      -0.55400000      -0.60040000
C       -0.04330000      -0.73430000       0.05230000
C       -1.17240000      -0.04290000      -0.72550000
C       -0.33680000      -2.21350000       0.17290000
O        0.38850000      -2.96060000       1.13460000
C       -1.01680000      -2.85240000       1.33830000
C       -1.49950000      -2.05130000       2.50500000
O       -0.84170000      -1.25070000       3.11980000
H        2.86060000       0.94230000      -1.02960000
H        1.21490000       1.54090000      -1.23420000
H        1.87560000       1.31290000       0.39080000
H        1.31560000      -0.94940000      -1.62570000
H        2.05780000      -1.17520000      -0.04840000
H        0.00370000      -0.32300000       1.06580000
H       -1.25020000      -0.43600000      -1.74650000
H       -2.14090000      -0.19080000      -0.23620000
H       -1.00190000       1.03400000      -0.79700000
H       -0.47120000      -2.73470000      -0.77980000
H       -1.58530000      -3.76600000       1.15480000
H       -2.56390000      -2.25150000       2.76520000
