16
Properties=species:S:1:pos:R:3 gdb_49431=T pbc="F F F"
O       -0.54070000       1.02030000       0.93540000
C        0.10030000       1.22740000      -0.06280000
C        1.42920000       1.93650000      -0.12380000
N        1.54530000       3.05600000      -1.18630000
C        1.25780000       4.51180000      -0.67060000
C        0.49540000       4.89180000       0.61260000
C        0.83220000       3.68160000       1.47200000
C        1.84790000       2.99940000       0.89430000
C        2.46160000       3.78870000      -0.26740000
H       -0.25450000       0.89410000      -1.06460000
H        2.19350000       1.20460000      -0.42210000
H        1.23940000       5.16030000      -1.54170000
H        0.83350000       5.88570000       0.93990000
H       -0.59390000       4.94730000       0.50550000
H        0.04790000       3.16900000       2.01590000
H        3.50600000       3.96770000      -0.49700000
