19
Properties=species:S:1:pos:R:3 gdb_40573=T pbc="F F F"
C       -0.12100000       1.39510000      -0.16430000
C        1.29760000       0.95670000       0.09580000
C        0.19420000      -0.07090000       0.01080000
C       -0.25590000      -0.79770000       1.24660000
C       -1.61840000      -1.50400000       1.29850000
C       -1.34590000      -2.91190000       0.74080000
O        0.01980000      -2.97060000       0.32780000
C        0.32380000      -2.21600000       1.53790000
C       -1.05740000      -2.62480000       2.17190000
H       -0.64930000       1.90030000       0.63820000
H       -0.37850000       1.75160000      -1.15560000
H        2.01340000       1.01140000      -0.71680000
H        1.72100000       1.16770000       1.07300000
H        0.17380000      -0.68140000      -0.88560000
H       -0.13910000      -0.17210000       2.13920000
H       -2.60840000      -1.06640000       1.32200000
H       -2.07430000      -3.54100000       0.24720000
H        1.33130000      -2.38650000       1.91170000
H       -1.36890000      -3.05960000       3.11070000
