17
Properties=species:S:1:pos:R:3 gdb_7985=T pbc="F F F"
C       -0.07460000       1.50060000       0.13520000
C        0.01460000       0.01390000      -0.14920000
C        1.09950000      -0.41900000      -1.14610000
C        1.42320000      -1.83590000      -0.66320000
O        2.70870000      -2.29030000      -0.98230000
C        1.21300000      -1.69330000       0.83320000
N        1.81170000      -2.42080000       1.67380000
O        0.35730000      -0.67840000       1.09030000
H        0.88960000       1.88440000       0.48120000
H       -0.35630000       2.03820000      -0.77560000
H       -0.82650000       1.70580000       0.90200000
H       -0.96610000      -0.36680000      -0.46400000
H        0.76040000      -0.36970000      -2.18230000
H        1.99380000       0.20420000      -1.03760000
H        0.65670000      -2.53390000      -1.04480000
H        3.02470000      -2.74520000      -0.18690000
H        1.58640000      -2.16980000       2.63600000
