21
Properties=species:S:1:pos:R:3 gdb_92541=T pbc="F F F"
C        0.42620000       1.45120000      -0.37830000
C        0.03270000       0.04170000       0.06780000
O        0.25860000      -0.92420000      -0.97790000
C        1.47620000      -1.60540000      -0.76970000
C        2.76280000      -0.87010000      -1.20190000
O        3.02780000      -0.46120000       0.16220000
C        1.94670000      -1.28880000       0.66450000
C        0.79410000      -0.51650000       1.30030000
C        1.21710000       0.49370000       2.36640000
H        1.50760000       1.55620000      -0.48840000
H       -0.05170000       1.67500000      -1.33600000
H        0.08550000       2.19320000       0.35110000
H       -1.04790000       0.02660000       0.25030000
H        1.35980000      -2.63880000      -1.10190000
H        3.55590000      -1.52630000      -1.58290000
H        2.62320000      -0.02290000      -1.88060000
H        2.32800000      -2.10460000       1.28810000
H        0.14620000      -1.27410000       1.76130000
H        1.96060000       1.19070000       1.97370000
H        0.36080000       1.06890000       2.73240000
H        1.66180000      -0.01910000       3.22530000
