19
Properties=species:S:1:pos:R:3 gdb_93019=T pbc="F F F"
C        0.03210000       1.51770000      -0.02270000
C        0.07530000       0.00850000      -0.02710000
O       -0.80670000      -0.64580000       0.89920000
C        0.62510000      -0.74150000       1.11750000
C        1.26230000      -2.06330000       0.89780000
C        1.06100000      -2.73560000      -0.23560000
C        0.16920000      -2.19510000      -1.32130000
C        0.15330000      -0.65580000      -1.39740000
O       -0.88970000      -0.20210000      -2.25380000
H        0.95150000       1.93120000      -0.45110000
H       -0.80510000       1.87440000      -0.62860000
H       -0.08150000       1.89360000       0.99680000
H        0.96160000      -0.17150000       1.98210000
H        1.89150000      -2.45960000       1.68840000
H        1.51340000      -3.71180000      -0.38480000
H        0.45160000      -2.59150000      -2.30110000
H       -0.85970000      -2.53390000      -1.13600000
H        1.07770000      -0.31020000      -1.87710000
H       -1.72370000      -0.45990000      -1.84340000
