15
Properties=species:S:1:pos:R:3 gdb_109200=T pbc="F F F"
O        0.14230000       1.24650000       0.37280000
C       -0.00460000      -0.12460000       0.12380000
C       -1.44210000      -0.50450000      -0.05450000
N       -2.41640000       0.29480000       0.07290000
C       -3.64000000      -0.46880000      -0.16920000
C       -3.12990000      -1.92870000      -0.43280000
O       -1.69140000      -1.80710000      -0.36750000
C       -3.58870000      -2.90300000       0.56070000
N       -3.98490000      -3.65730000       1.34060000
H       -0.74780000       1.60580000       0.49020000
H        0.54760000      -0.41280000      -0.78260000
H        0.40670000      -0.73270000       0.94560000
H       -4.30730000      -0.41810000       0.69450000
H       -4.17600000      -0.07180000      -1.03600000
H       -3.39190000      -2.29190000      -1.43000000
