18
Properties=species:S:1:pos:R:3 gdb_14464=T pbc="F F F"
C       -0.01390000       1.46510000      -0.03780000
C        0.00580000      -0.02850000       0.02090000
O        0.21400000      -0.67550000      -1.22930000
C        0.17350000      -2.04580000      -0.80200000
C        1.21760000      -2.07890000       0.33660000
C        0.63210000      -0.89330000       1.09410000
C       -0.88550000      -0.92260000       0.85650000
C       -1.16650000      -2.12480000      -0.03670000
H        0.93570000       1.85320000      -0.42070000
H       -0.81550000       1.81950000      -0.69400000
H       -0.17760000       1.88350000       0.95930000
H        0.31970000      -2.70580000      -1.65450000
H        1.20110000      -3.01720000       0.89870000
H        2.23060000      -1.89240000      -0.03090000
H        1.07190000      -0.47960000       1.99170000
H       -1.59360000      -0.53100000       1.57450000
H       -2.02500000      -1.97420000      -0.69730000
H       -1.28740000      -3.06510000       0.50900000
