18
Properties=species:S:1:pos:R:3 gdb_55326=T pbc="F F F"
N        0.48920000       0.55450000       0.80150000
C        0.01590000       0.17540000      -0.42860000
O        0.56090000       0.49910000      -1.46600000
C       -1.29080000      -0.61730000      -0.38560000
C       -1.72070000      -1.14150000      -1.77660000
C       -1.11390000      -2.52430000      -1.42530000
C       -1.15920000      -2.12400000       0.08300000
C       -0.09830000      -2.53790000       0.97690000
C        0.78390000      -2.87880000       1.72190000
H        1.42560000       0.93140000       0.80400000
H        0.23760000       0.00100000       1.60630000
H       -2.02490000      -0.04090000       0.18410000
H       -2.80760000      -1.17570000      -1.88280000
H       -1.27970000      -0.60930000      -2.61830000
H       -1.66510000      -3.42350000      -1.70590000
H       -0.08290000      -2.60930000      -1.77470000
H       -2.12250000      -2.42550000       0.50840000
H        1.56540000      -3.19770000       2.36650000
