21
Properties=species:S:1:pos:R:3 gdb_104533=T pbc="F F F"
O        0.34200000       1.23010000      -0.43580000
C        0.09600000      -0.06560000       0.07240000
C       -1.37970000      -0.49710000       0.02670000
C       -2.21690000       0.17910000       1.13090000
C       -2.25960000       1.63900000       1.07620000
C       -2.29630000       2.84170000       1.03430000
C       -1.94940000      -0.45300000      -1.42290000
C       -1.68300000      -1.97800000      -1.55020000
C       -1.50190000      -2.05260000      -0.00920000
H       -0.20100000       1.85250000       0.06330000
H        0.68860000      -0.74320000      -0.55230000
H        0.46890000      -0.17610000       1.10590000
H       -3.24500000      -0.20120000       1.07880000
H       -1.82690000      -0.13010000       2.11100000
H       -2.34580000       3.90210000       0.99860000
H       -3.01650000      -0.21320000      -1.44050000
H       -1.42990000       0.21560000      -2.11130000
H       -2.48220000      -2.58640000      -1.97870000
H       -0.76050000      -2.19970000      -2.09240000
H       -0.64850000      -2.61940000       0.37570000
H       -2.40390000      -2.40660000       0.49930000
