23
Properties=species:S:1:pos:R:3 gdb_119915=T pbc="F F F"
C       -0.37520000       1.28680000      -0.35560000
O       -0.33460000      -0.11280000      -0.52560000
C        0.97420000      -0.59200000      -0.84670000
C        0.92000000      -2.09570000      -0.94400000
C       -0.07960000      -2.71500000      -1.89970000
O       -0.82820000      -1.86250000      -2.71360000
C        1.39590000      -2.87430000      -2.17330000
C        1.99560000      -2.14810000      -3.36150000
C        2.00920000      -4.23430000      -1.89610000
H        0.27750000       1.61010000       0.46970000
H       -0.06470000       1.81960000      -1.26780000
H       -1.40630000       1.55940000      -0.11850000
H        1.31020000      -0.12880000      -1.78430000
H        1.67970000      -0.27960000      -0.06120000
H        1.03880000      -2.60480000       0.00830000
H       -0.62270000      -3.59610000      -1.55560000
H       -1.15380000      -1.15950000      -2.13440000
H        1.37750000      -1.30450000      -3.67160000
H        3.00950000      -1.79040000      -3.14750000
H        2.06180000      -2.83060000      -4.21640000
H        1.92480000      -4.88660000      -2.77300000
H        3.07360000      -4.14500000      -1.64780000
H        1.51520000      -4.73630000      -1.05800000
