20
Properties=species:S:1:pos:R:3 gdb_37282=T pbc="F F F"
C        0.01280000       1.46290000      -0.03900000
C        1.29000000       0.70830000       0.04990000
C        1.85540000       0.33360000       1.41530000
C        1.46030000      -1.19560000       1.50120000
C        1.67550000      -1.60590000       2.95450000
C        1.06560000      -0.35240000       3.65060000
C        0.66910000       0.47040000       2.41960000
C        0.02910000      -0.56030000       1.43060000
N       -0.01470000      -0.00940000       0.05050000
H       -0.33040000       2.06740000       0.79280000
H       -0.29610000       1.83450000      -1.01250000
H        1.92090000       0.59300000      -0.82780000
H        2.85910000       0.67650000       1.67290000
H        1.77160000      -1.87910000       0.70980000
H        1.15010000      -2.53120000       3.20930000
H        2.73320000      -1.75140000       3.19370000
H        0.19900000      -0.59550000       4.27350000
H        1.78590000       0.17580000       4.28310000
H        0.20840000       1.43540000       2.62770000
H       -0.86730000      -1.12490000       1.69300000
