17
Properties=species:S:1:pos:R:3 gdb_70063=T pbc="F F F"
O       -0.16950000       1.43960000       0.02360000
C       -0.04540000       0.05050000       0.07560000
C       -0.32920000      -0.75580000      -1.16190000
C       -1.31860000      -0.80140000       0.00030000
C       -1.08470000      -1.99540000       0.88000000
C        0.05360000      -1.82450000       1.55270000
C        1.39930000      -2.47560000       1.76900000
O        1.98750000      -1.36830000       1.01750000
C        0.76610000      -0.55460000       1.20330000
H        0.58290000       1.78530000      -0.46910000
H       -0.62760000      -0.17010000      -2.02510000
H        0.26770000      -1.63620000      -1.37350000
H       -2.28640000      -0.33100000      -0.12990000
H       -1.64240000      -2.91900000       0.77140000
H        1.77040000      -2.49010000       2.80210000
H        1.57640000      -3.44660000       1.29620000
H        0.93800000       0.19170000       1.98980000
