21
Properties=species:S:1:pos:R:3 gdb_42078=T pbc="F F F"
C       -0.00080000       1.09130000       0.34110000
C        1.14050000       1.96280000      -0.23130000
C        2.20140000       0.93220000      -0.66540000
C        1.27320000      -0.23200000      -1.05610000
O        0.26650000      -0.25670000      -0.05850000
C        3.14830000       1.36350000      -1.81510000
C        4.45840000       0.69780000      -1.46970000
C        4.46060000       0.21820000      -0.22740000
C        3.15410000       0.47730000       0.48150000
H       -0.03920000       1.11320000       1.43610000
H       -0.98200000       1.41010000      -0.03580000
H        0.79070000       2.52630000      -1.10280000
H        1.52380000       2.68530000       0.49390000
H        0.83970000      -0.05590000      -2.05590000
H        1.76920000      -1.20710000      -1.06270000
H        2.75880000       1.06620000      -2.79730000
H        3.26650000       2.45610000      -1.85530000
H        5.29440000       0.66220000      -2.15950000
H        5.29920000      -0.27330000       0.25370000
H        3.27720000       1.26250000       1.24160000
H        2.75990000      -0.39820000       1.01020000
