17
Properties=species:S:1:pos:R:3 gdb_111714=T pbc="F F F"
C       -0.22110000       1.39900000       0.06820000
N        0.17350000      -0.00200000      -0.07990000
C        0.77320000      -0.56130000       1.09090000
C        0.15510000      -1.65130000       1.90510000
O       -0.64290000      -2.48800000       1.07110000
C        0.52490000      -2.91350000       0.31520000
C        1.42830000      -1.94910000       1.08560000
C        2.77080000      -2.19140000       1.48040000
N        3.86760000      -2.38180000       1.80050000
H        0.67080000       2.01500000       0.22280000
H       -0.69570000       1.73210000      -0.85840000
H       -0.91720000       1.59140000       0.90090000
H       -0.63680000      -0.56260000      -0.32630000
H        1.35800000       0.14870000       1.66930000
H       -0.02900000      -1.66940000       2.97380000
H        0.74600000      -3.96500000       0.51700000
H        0.42000000      -2.74040000      -0.76040000
