15
Properties=species:S:1:pos:R:3 gdb_45075=T pbc="F F F"
O        0.03940000       0.02870000      -0.39580000
C       -0.01510000       1.17280000      -0.05650000
C       -1.26350000       1.98030000       0.31750000
N       -0.84110000       3.24650000       0.91440000
C       -0.00670000       3.07650000       2.11160000
C        0.63590000       3.34770000       0.80310000
C        1.20360000       2.15300000       0.05090000
C        2.37110000       1.53630000       0.66250000
N        3.29430000       1.05690000       1.16550000
H       -1.83550000       2.17740000      -0.59810000
H       -1.90570000       1.40140000       0.98740000
H       -0.09280000       3.87130000       2.84520000
H        0.10240000       2.07870000       2.53520000
H        1.03510000       4.32950000       0.57350000
H        1.45950000       2.43880000      -0.97840000
