18
Properties=species:S:1:pos:R:3 gdb_14993=T pbc="F F F"
O       -0.05260000       1.44440000      -0.03090000
C        0.02080000       0.02630000      -0.01980000
C       -1.40760000      -0.51790000       0.04340000
C       -1.42300000      -2.04500000      -0.10050000
O       -2.70870000      -2.57710000       0.16020000
C       -3.12000000      -2.38320000       1.49990000
C       -2.84610000      -0.99490000       2.00800000
C       -2.09030000      -0.13320000       1.33260000
H        0.84120000       1.79390000       0.02650000
H        0.52020000      -0.35140000      -0.92730000
H        0.59240000      -0.33650000       0.84950000
H       -1.95070000      -0.07470000      -0.80340000
H       -1.16790000      -2.35110000      -1.11950000
H       -0.67790000      -2.48920000       0.58310000
H       -4.19590000      -2.59500000       1.51890000
H       -2.64020000      -3.12780000       2.16340000
H       -3.30070000      -0.72610000       2.95820000
H       -1.91870000       0.87540000       1.69530000
