19
Properties=species:S:1:pos:R:3 gdb_70871=T pbc="F F F"
C        0.02760000       1.39890000      -0.05020000
C        0.01130000      -0.08880000       0.01330000
O        0.91440000      -0.85420000      -0.78990000
C        0.11410000      -2.03040000      -0.43190000
C        0.13650000      -3.12100000      -1.45620000
C        0.46230000      -2.24510000       1.07010000
C       -0.29070000      -0.93080000       1.27720000
O       -0.77610000      -0.38830000       2.44870000
C       -1.09040000      -1.10420000      -0.00310000
H        1.02300000       1.78460000       0.19810000
H       -0.23610000       1.76000000      -1.04900000
H       -0.68910000       1.80660000       0.66860000
H        1.15770000      -3.49740000      -1.58070000
H       -0.50190000      -3.95370000      -1.14620000
H       -0.21310000      -2.75040000      -2.42390000
H       -0.08890000      -3.08660000       1.49860000
H        1.52760000      -2.30620000       1.31750000
H       -0.05580000       0.07580000       2.89070000
H       -2.14730000      -1.07580000      -0.23110000
