15
Properties=species:S:1:pos:R:3 gdb_49880=T pbc="F F F"
N        0.10060000       1.26560000       0.00630000
C       -0.02640000       0.00560000       0.00390000
N       -1.24780000      -0.65950000       0.01210000
C       -1.31440000      -2.11860000       0.00870000
C       -2.80610000      -2.41170000       0.02010000
N       -3.28650000      -3.58420000       0.02080000
N       -3.41460000      -1.17070000       0.02850000
C       -2.52630000      -0.08380000       0.02400000
O       -2.84050000       1.07280000       0.02990000
H        1.08950000       1.50980000      -0.00110000
H        0.79880000      -0.71840000      -0.00490000
H       -0.84950000      -2.55030000      -0.88380000
H       -0.83510000      -2.55510000       0.89120000
H       -4.30720000      -3.58050000       0.02920000
H       -4.40860000      -1.00780000       0.03710000
