17
Properties=species:S:1:pos:R:3 gdb_14280=T pbc="F F F"
C       -0.41430000       1.38930000       0.22480000
C       -0.02970000      -0.06010000       0.02280000
C        0.61620000      -0.59460000      -1.20800000
C        1.23630000       0.36660000      -2.19690000
C        2.30830000       1.12080000      -1.39220000
O        2.95470000       2.06000000      -1.77190000
C        2.40480000       0.44970000      -0.01190000
N        1.35690000      -0.56540000       0.09220000
H        0.18870000       2.09550000      -0.35040000
H       -1.45850000       1.53490000      -0.07100000
H       -0.33100000       1.66570000       1.28170000
H       -0.70970000      -0.74430000       0.52850000
H        0.34360000      -1.58430000      -1.56310000
H        1.72740000      -0.16490000      -3.01990000
H        0.54100000       1.08000000      -2.64880000
H        3.38520000      -0.03460000       0.07640000
H        2.34760000       1.20270000       0.78060000
