16
Properties=species:S:1:pos:R:3 gdb_28885=T pbc="F F F"
C       -0.04190000       1.57100000      -0.00820000
C        0.00570000       0.06800000      -0.00110000
C       -0.03570000      -0.69510000      -1.18120000
N       -0.14890000      -0.09710000      -2.40840000
N       -0.00820000      -2.04160000      -1.18470000
C        0.05760000      -2.62180000       0.00490000
N        0.10790000      -2.02490000       1.19360000
C        0.08190000      -0.68930000       1.16410000
O        0.13250000      -0.06200000       2.35630000
H        0.84410000       2.00630000      -0.49070000
H       -0.92110000       1.93840000      -0.55160000
H       -0.08510000       1.96150000       1.00890000
H        0.14770000       0.85860000      -2.51070000
H        0.02650000      -0.70430000      -3.19360000
H        0.07710000      -3.70950000       0.01180000
H        0.17330000      -0.76670000       3.01800000
