17
Properties=species:S:1:pos:R:3 gdb_45265=T pbc="F F F"
O        0.06160000      -0.01100000      -0.29190000
C        0.03440000       1.16420000      -0.05330000
N       -0.98640000       2.02980000       0.27830000
C       -0.16760000       3.25490000       0.21300000
C        0.08460000       4.03240000       1.51630000
N        1.30080000       3.50710000       2.16980000
C        1.22670000       2.10040000       2.58270000
C        1.87830000       2.45740000       1.29460000
C        1.07030000       2.32270000       0.01170000
H       -1.98750000       1.89940000       0.24220000
H       -0.43230000       3.90160000      -0.62910000
H        0.27010000       5.08550000       1.27880000
H       -0.76950000       3.99050000       2.20000000
H        1.84120000       1.85130000       3.44370000
H        0.26570000       1.59480000       2.55140000
H        2.96050000       2.44010000       1.21420000
H        1.66660000       2.45450000      -0.89050000
