18
Properties=species:S:1:pos:R:3 gdb_108797=T pbc="F F F"
C       -0.18190000       1.55920000       0.06020000
C        0.01640000       0.04030000      -0.04190000
C        0.79190000      -0.45660000      -1.23750000
C        1.82520000      -1.19740000      -0.81650000
C        2.87200000      -1.93970000      -1.58310000
O        4.18030000      -1.69820000      -1.07520000
N        1.84970000      -1.26280000       0.58890000
C        0.84120000      -0.49950000       1.14810000
O        0.66610000      -0.29390000       2.32680000
H        0.77340000       2.08480000      -0.03180000
H       -0.84690000       1.92040000      -0.72950000
H       -0.61790000       1.80790000       1.03130000
H       -0.97010000      -0.44280000       0.01070000
H        0.53270000      -0.26880000      -2.26940000
H        2.72350000      -3.02110000      -1.47870000
H        2.78530000      -1.69460000      -2.65030000
H        4.36850000      -0.75990000      -1.18730000
H        2.62700000      -1.62730000       1.11640000
