13
Properties=species:S:1:pos:R:3 gdb_21576=T pbc="F F F"
N        0.02010000       1.40000000       0.20390000
C       -0.03190000       0.03390000       0.06590000
C       -1.22180000      -0.67690000       0.01560000
C       -1.11350000      -2.06400000      -0.07170000
O       -2.23730000      -2.80320000      -0.12260000
N        0.03520000      -2.73570000      -0.11390000
N        1.17710000      -2.05100000      -0.06920000
C        1.15680000      -0.73490000       0.01750000
H        0.88210000       1.85500000      -0.05110000
H       -0.80690000       1.92270000      -0.03790000
H       -2.19450000      -0.19970000       0.04370000
H       -1.93900000      -3.72350000      -0.18130000
H        2.12800000      -0.24740000       0.05240000
