12
Properties=species:S:1:pos:R:3 gdb_131923=T pbc="F F F"
O       -0.06840000       0.00070000       0.00360000
N       -0.00990000       1.22360000       0.00690000
O        0.99890000       1.89690000       0.00240000
C       -1.33180000       1.94230000       0.01750000
N       -1.27700000       3.25570000       0.02010000
C       -2.46060000       3.87330000       0.02960000
N       -3.66080000       3.29110000       0.03650000
C       -3.66820000       1.95650000       0.03350000
C       -2.49910000       1.19890000       0.02380000
H       -2.44060000       4.95920000       0.03180000
H       -4.64170000       1.47340000       0.03910000
H       -2.48770000       0.11910000       0.02120000
