13
Properties=species:S:1:pos:R:3 gdb_131972=T pbc="F F F"
N        0.02930000       1.39400000       0.14570000
C       -0.02820000       0.04170000       0.04610000
C       -1.14090000      -0.81010000       0.02800000
C       -0.62210000      -2.12810000      -0.01880000
N        0.69160000      -2.12300000      -0.03200000
N        1.03340000      -0.78960000       0.00830000
N       -2.48730000      -0.39680000       0.01810000
O       -3.36090000      -1.25710000      -0.01850000
O       -2.71450000       0.82610000       0.04290000
H        0.82810000       1.87230000      -0.23940000
H       -0.87470000       1.83140000       0.01190000
H       -1.18020000      -3.05030000      -0.04610000
H        2.00790000      -0.54200000       0.03890000
