15
Properties=species:S:1:pos:R:3 gdb_93621=T pbc="F F F"
O        0.17720000       1.39550000       0.25470000
C       -0.07730000       0.04740000      -0.01190000
C       -1.49940000      -0.28120000      -0.47500000
O       -1.35090000      -1.54830000      -1.12840000
C       -0.16760000      -1.50600000      -1.92340000
C       -0.41860000      -1.10110000      -3.30410000
C       -0.63370000      -0.74440000      -4.43080000
C        0.73090000      -0.47350000      -1.19900000
O        1.81480000      -0.07220000      -1.52060000
H        1.06680000       1.57960000      -0.07980000
H        0.16320000      -0.59660000       0.85310000
H       -2.21800000      -0.41660000       0.33360000
H       -1.86250000       0.49520000      -1.16270000
H        0.29530000      -2.49950000      -1.89540000
H       -0.82100000      -0.44070000      -5.43150000
