16
Properties=species:S:1:pos:R:3 gdb_124958=T pbc="F F F"
C       -0.02580000       1.49990000       0.08540000
C       -0.02340000       0.01300000      -0.05170000
C       -0.02220000      -0.82040000      -1.17660000
C        0.04290000      -0.47320000      -2.56910000
O        0.09720000      -1.28690000      -3.48150000
C       -0.03580000      -2.15220000      -0.63770000
N       -0.09440000      -3.29480000      -1.38130000
N       -0.03320000      -2.14590000       0.69000000
N       -0.02800000      -0.81100000       1.00360000
H        0.79840000       1.95070000      -0.47560000
H       -0.95690000       1.93310000      -0.29460000
H        0.07940000       1.79700000       1.13270000
H        0.05320000       0.61570000      -2.79520000
H        0.14150000      -3.16990000      -2.35570000
H        0.20780000      -4.14430000      -0.93250000
H       -0.03090000      -0.55010000       1.97550000
