18
Properties=species:S:1:pos:R:3 gdb_73602=T pbc="F F F"
C        0.07180000       1.57380000       0.00920000
C        0.00280000       0.07960000       0.14990000
O       -1.27990000      -0.42050000      -0.06540000
C       -1.43600000      -1.68700000       0.59670000
C       -0.28150000      -1.81000000       1.62110000
C        0.71040000      -0.75280000       1.16870000
C        1.19650000      -0.79320000      -0.28970000
C        1.04710000      -1.95500000      -1.11260000
N        0.92990000      -2.89510000      -1.77840000
H        1.08720000       1.93780000       0.18490000
H       -0.23480000       1.87670000      -0.99640000
H       -0.60130000       2.04960000       0.72890000
H       -2.42470000      -1.69630000       1.06410000
H       -1.39340000      -2.48930000      -0.14470000
H       -0.61590000      -1.56770000       2.63420000
H        0.13450000      -2.82090000       1.63680000
H        1.39160000      -0.32270000       1.89370000
H        2.11560000      -0.24660000      -0.47740000
