15
Properties=species:S:1:pos:R:3 gdb_97486=T pbc="F F F"
O        0.21940000       1.14510000       0.71500000
C        0.00410000       0.13670000      -0.25990000
C       -1.36750000      -0.36340000      -0.29190000
C       -2.50400000      -0.78250000      -0.26510000
C       -3.77830000      -1.24990000      -0.24500000
C       -4.91260000      -1.67560000      -0.22830000
C       -6.27010000      -2.13530000      -0.20350000
C       -6.67900000      -3.38340000      -0.88340000
O       -6.55320000      -3.34020000       0.52990000
H       -0.07970000       0.80020000       1.56310000
H        0.25710000       0.59320000      -1.22360000
H        0.69150000      -0.71410000      -0.12340000
H       -7.02390000      -1.35830000      -0.07920000
H       -7.69480000      -3.46190000      -1.26860000
H       -5.92490000      -3.96800000      -1.40640000
