16
Properties=species:S:1:pos:R:3 gdb_67119=T pbc="F F F"
C       -0.16510000       1.64400000      -0.25050000
C       -0.01510000       0.17330000      -0.02580000
C        0.51230000      -0.94710000      -0.81000000
C        1.52330000      -1.35200000       0.35930000
C        0.51030000      -0.59690000       1.20090000
C       -0.50140000      -1.26240000       1.79870000
C       -1.54360000      -1.42060000       0.72530000
O       -2.54190000      -2.08160000       0.74230000
N       -0.99870000      -0.81570000      -0.50060000
H        0.79100000       2.16140000      -0.12200000
H       -0.53150000       1.83020000      -1.26310000
H       -0.88070000       2.07220000       0.45880000
H        0.74320000      -1.01910000      -1.86800000
H        1.69920000      -2.39960000       0.61130000
H        2.46380000      -0.84110000       0.12930000
H       -0.38880000      -2.07080000       2.51310000
