21
Properties=species:S:1:pos:R:3 gdb_121263=T pbc="F F F"
C        0.01800000       1.50640000      -0.12170000
C       -0.09830000      -0.00790000      -0.16570000
O        0.81760000      -0.49780000      -1.12850000
C        0.88210000      -1.90730000      -1.20130000
C       -0.34670000      -2.53440000      -1.92750000
O        0.12760000      -3.61990000      -2.71440000
C        1.49580000      -3.41470000      -2.96390000
C        1.94250000      -2.09960000      -3.53930000
C        2.05130000      -2.36680000      -2.04570000
H        1.03500000       1.80390000       0.14880000
H       -0.21530000       1.93700000      -1.09960000
H       -0.67570000       1.92180000       0.61540000
H        0.12640000      -0.44300000       0.82300000
H       -1.12960000      -0.30320000      -0.41960000
H        0.98060000      -2.32110000      -0.18510000
H       -1.11080000      -2.92500000      -1.24980000
H       -0.80480000      -1.75660000      -2.55570000
H        2.00580000      -4.33810000      -3.21070000
H        2.86870000      -2.09390000      -4.10340000
H        1.20130000      -1.38900000      -3.88620000
H        3.02600000      -2.45140000      -1.58170000
