19
Properties=species:S:1:pos:R:3 gdb_33093=T pbc="F F F"
C        0.00260000       1.52650000      -0.06630000
C        0.01420000       0.00920000      -0.01790000
O        0.65840000      -0.46740000      -1.18770000
C        0.76280000      -1.81780000      -1.29270000
C        0.30730000      -2.79690000      -0.43820000
N        0.64050000      -4.01460000      -1.02060000
C        1.30040000      -3.80570000      -2.19930000
N        1.79840000      -4.91280000      -2.91660000
C        1.38620000      -2.44740000      -2.41100000
H        1.02300000       1.91810000      -0.10610000
H       -0.53490000       1.87910000      -0.95100000
H       -0.49010000       1.93010000       0.82340000
H        0.54980000      -0.35280000       0.87330000
H       -1.01050000      -0.39080000       0.03000000
H       -0.22890000      -2.74990000       0.49250000
H        0.60160000      -4.90700000      -0.56080000
H        1.06250000      -5.41930000      -3.40110000
H        2.47010000      -4.61030000      -3.61120000
H        1.80850000      -1.94940000      -3.26910000
