19
Properties=species:S:1:pos:R:3 gdb_117514=T pbc="F F F"
C       -0.05550000       1.54800000       0.00230000
C       -0.20560000       0.03480000      -0.11730000
N        0.90950000      -0.52560000      -0.87690000
C        0.90930000      -1.95380000      -1.06030000
C       -0.37080000      -2.52880000      -1.55280000
N       -1.37640000      -2.94390000      -1.94590000
C        2.00770000      -2.35140000      -2.09210000
C        2.45940000      -3.79040000      -2.06570000
O        2.43820000      -1.52280000      -2.85110000
H        0.89390000       1.80820000       0.47850000
H       -0.08180000       2.02370000      -0.98460000
H       -0.87260000       1.96850000       0.59500000
H       -0.19330000      -0.41960000       0.88220000
H       -1.18530000      -0.21140000      -0.56030000
H        1.02430000      -0.07820000      -1.78120000
H        1.13050000      -2.45610000      -0.10780000
H        1.59930000      -4.46720000      -2.04860000
H        3.08760000      -3.99930000      -2.93180000
H        3.03350000      -3.97230000      -1.14910000
