17
Properties=species:S:1:pos:R:3 gdb_83440=T pbc="F F F"
O       -0.22910000       1.50840000      -0.02710000
C       -0.25580000       0.12500000      -0.17230000
C       -0.38660000      -0.77770000       1.00750000
O       -1.17000000      -0.11020000       2.00830000
C       -2.33280000      -0.12270000       1.12900000
C       -1.52000000      -0.70820000      -0.02130000
C       -2.00490000      -1.68210000      -1.02880000
C       -2.14600000      -1.32710000      -2.45110000
O       -1.04590000      -2.11740000      -1.99690000
H       -0.35860000       1.68030000       0.91580000
H        0.39130000      -0.23360000      -0.96700000
H        0.29070000      -1.56030000       1.33120000
H       -3.09570000      -0.80210000       1.52460000
H       -2.75670000       0.87700000       0.98380000
H       -2.63660000      -2.48530000      -0.64320000
H       -2.87160000      -1.85220000      -3.07020000
H       -1.89310000      -0.31740000      -2.76940000
