15
Properties=species:S:1:pos:R:3 gdb_28956=T pbc="F F F"
O        0.26260000       1.32070000       0.16570000
C        0.15640000      -0.01040000       0.00130000
N        0.17240000      -0.66450000      -1.12700000
C        0.03070000      -1.99250000      -0.75490000
C       -0.06960000      -2.11070000       0.59840000
N        0.01930000      -0.80800000       1.09570000
C       -0.06340000      -0.39050000       2.47550000
C       -1.48770000      -0.44810000       3.02690000
O       -1.73670000      -0.54970000       4.19680000
H        0.37450000       1.69420000      -0.71750000
H        0.01180000      -2.77800000      -1.49410000
H       -0.17790000      -2.95530000       1.25800000
H        0.58970000      -0.99540000       3.11130000
H        0.27810000       0.64820000       2.54000000
H       -2.28110000      -0.37280000       2.25000000
