17
Properties=species:S:1:pos:R:3 gdb_80188=T pbc="F F F"
C       -0.08530000       1.38800000      -0.15830000
N       -0.03530000      -0.04250000       0.04040000
C       -1.19100000      -0.88050000       0.03190000
C       -1.43690000      -1.73950000      -1.20890000
O       -0.80440000      -1.44540000      -2.40550000
C       -0.63250000      -2.29040000      -0.05050000
N        0.78720000      -2.10560000      -0.19780000
C        1.14510000      -0.75290000      -0.06440000
O        2.27090000      -0.30690000      -0.08880000
H        0.94190000       1.75620000      -0.13840000
H       -0.54300000       1.64170000      -1.12210000
H       -0.65640000       1.87310000       0.64150000
H       -2.00940000      -0.59740000       0.68700000
H       -2.44630000      -2.12470000      -1.32940000
H        0.08990000      -1.81160000      -2.35260000
H       -0.97540000      -3.11800000       0.55830000
H        1.44410000      -2.79680000       0.12460000
