16
Properties=species:S:1:pos:R:3 gdb_26007=T pbc="F F F"
C        0.03170000       1.42640000      -2.32060000
C        0.07790000      -0.06660000      -2.54500000
O        0.27180000      -0.60840000      -3.60070000
O       -0.13410000      -0.70460000      -1.36660000
C       -0.14820000      -2.08210000      -1.26150000
C       -0.36820000      -2.67480000      -0.03850000
N       -0.32580000      -4.03060000      -0.24480000
C       -0.08490000      -4.29700000      -1.56540000
C        0.03300000      -3.10140000      -2.23800000
H       -0.93940000       1.71550000      -1.90890000
H        0.79410000       1.72190000      -1.59430000
H        0.20160000       1.93770000      -3.26720000
H       -0.54600000      -2.24140000       0.93060000
H       -0.45370000      -4.72190000       0.47190000
H       -0.01560000      -5.31040000      -1.92580000
H        0.22280000      -2.96280000      -3.28540000
