17
Properties=species:S:1:pos:R:3 gdb_115124=T pbc="F F F"
C       -0.07400000       1.54690000      -0.11040000
C       -0.05220000       0.01780000      -0.09170000
C       -1.43800000      -0.58250000       0.19660000
O       -2.41710000      -0.20490000      -0.78360000
C       -2.59170000      -1.22640000      -1.75990000
C       -2.16790000      -2.52670000      -1.10430000
O       -2.33920000      -3.65350000      -1.47800000
C       -1.40690000      -2.09960000       0.18190000
O       -0.87620000      -2.84400000       0.95980000
H        0.91330000       1.94770000      -0.35680000
H       -0.78920000       1.91270000      -0.85170000
H       -0.36680000       1.94770000       0.86600000
H        0.31390000      -0.36590000      -1.05280000
H        0.63320000      -0.35850000       0.67650000
H       -1.79950000      -0.22370000       1.16750000
H       -3.64130000      -1.25210000      -2.06730000
H       -1.97860000      -1.04800000      -2.65830000
