18
Properties=species:S:1:pos:R:3 gdb_49647=T pbc="F F F"
O       -0.73170000       0.72970000      -0.54000000
C        0.15180000       0.86960000       0.26960000
C        1.24550000       1.89590000       0.21980000
C        1.30600000       3.07020000      -0.78040000
C       -0.04590000       3.78680000      -0.56610000
C        0.28080000       4.19350000       0.88600000
C        1.53000000       5.05810000       0.63400000
N        2.23510000       3.79000000       0.23860000
C        1.32940000       3.05690000       1.23010000
H        0.22040000       0.19320000       1.15460000
H        2.20950000       1.37340000       0.26720000
H        1.69460000       2.94860000      -1.78920000
H       -0.18730000       4.65540000      -1.21450000
H       -0.89380000       3.11430000      -0.68590000
H       -0.53370000       4.48500000       1.54960000
H        1.47880000       5.84630000      -0.12400000
H        2.00890000       5.44340000       1.53870000
H        1.67370000       2.94270000       2.25840000
