16
Properties=species:S:1:pos:R:3 gdb_6335=T pbc="F F F"
C        0.10300000       1.38420000       0.09700000
C       -0.43790000       0.03990000      -0.36130000
O       -0.73860000      -0.19460000      -1.51460000
N       -0.55060000      -0.88390000       0.65750000
C       -0.98490000      -2.21500000       0.60720000
N       -0.95160000      -2.86850000       1.69730000
C       -1.46120000      -2.77450000      -0.73080000
O       -1.94020000      -4.09710000      -0.58230000
H        0.13050000       2.05810000      -0.75810000
H       -0.52840000       1.81490000       0.88090000
H        1.11330000       1.27630000       0.50540000
H       -0.25720000      -0.61250000       1.58630000
H       -1.26750000      -3.82120000       1.51030000
H       -2.20220000      -2.10440000      -1.17730000
H       -0.62330000      -2.80630000      -1.43240000
H       -2.84290000      -4.05260000      -0.25180000
