21
Properties=species:S:1:pos:R:3 gdb_94935=T pbc="F F F"
C       -0.00970000       1.58200000      -0.17860000
C        0.03070000       0.07670000      -0.01470000
C       -1.22470000      -0.63020000      -0.49790000
C        1.32180000      -0.67590000      -0.21210000
O        2.50220000       0.08920000      -0.21710000
C        2.95030000       0.24340000       1.12810000
C        1.71500000       0.10320000       2.05360000
O        1.18800000       1.34110000       2.51750000
C        0.71290000      -0.62250000       1.16730000
H        0.94930000       2.04390000       0.04780000
H       -0.27400000       1.82920000      -1.21390000
H       -0.76190000       2.02750000       0.47930000
H       -1.43450000      -0.37540000      -1.54290000
H       -1.13050000      -1.71920000      -0.43220000
H       -2.09470000      -0.33500000       0.09970000
H        1.36940000      -1.57730000      -0.81850000
H        3.69350000      -0.53340000       1.36620000
H        3.42650000       1.22510000       1.22390000
H        1.96730000      -0.53340000       2.91410000
H        1.83260000       1.73300000       3.11520000
H        0.20140000      -1.47810000       1.59240000
