18
Properties=species:S:1:pos:R:3 gdb_32926=T pbc="F F F"
C       -0.04640000       1.52470000       0.11510000
C       -0.20720000       0.07650000      -0.33410000
N       -1.29160000      -0.57300000       0.41330000
C       -1.58730000      -1.90040000       0.11490000
N       -2.76330000      -2.37660000      -0.19660000
C       -2.59790000      -3.75660000      -0.30100000
C       -1.29620000      -4.08060000      -0.06500000
O       -0.56510000      -5.22430000      -0.04860000
N       -0.64040000      -2.89550000       0.19970000
H        0.77980000       2.00410000      -0.41750000
H       -0.95460000       2.10210000      -0.09180000
H        0.15000000       1.57750000       1.18970000
H       -0.37390000       0.03260000      -1.42270000
H        0.72240000      -0.47030000      -0.13700000
H       -2.15460000      -0.04510000       0.34530000
H       -3.41830000      -4.40960000      -0.55420000
H       -1.14780000      -5.95630000      -0.27250000
H        0.31200000      -2.81540000       0.51170000
