16
Properties=species:S:1:pos:R:3 gdb_6926=T pbc="F F F"
C        0.00040000       1.50650000       0.31890000
C        0.05470000       0.00910000       0.13130000
O       -1.15690000      -0.59130000      -0.24270000
C        1.33420000      -0.65240000      -0.35120000
C        0.85970000      -0.85540000       1.05930000
O        1.64880000      -0.26170000       2.07060000
C        1.06130000      -0.11890000       3.28040000
O        1.62560000       0.37020000       4.21100000
H        0.94320000       1.89390000       0.71130000
H       -0.20010000       2.00600000      -0.63610000
H       -0.80270000       1.77250000       1.01380000
H       -1.34690000      -0.33600000      -1.15270000
H        1.25310000      -1.49660000      -1.02620000
H        2.20750000      -0.02390000      -0.48650000
H        0.43980000      -1.82120000       1.32410000
H        0.02490000      -0.50580000       3.30200000
