20
Properties=species:S:1:pos:R:3 gdb_76858=T pbc="F F F"
C       -0.14500000       1.62560000       0.05650000
C        0.06220000       0.11640000       0.02980000
C        0.94730000      -0.58440000      -1.08080000
O        1.80500000       0.20750000      -1.87560000
C        1.66510000      -1.40360000       0.03360000
C        2.92880000      -0.84410000       0.70440000
C        2.95750000       0.62000000       0.81280000
N        2.12020000      -0.11780000       1.78530000
C        0.86230000      -0.65360000       1.12130000
H        0.78570000       2.19150000       0.10570000
H       -0.69100000       1.95620000      -0.83500000
H       -0.74480000       1.90770000       0.92820000
H       -0.92850000      -0.35370000      -0.00930000
H        0.33610000      -1.23250000      -1.72300000
H        1.27220000       0.63210000      -2.55520000
H        1.64130000      -2.48770000      -0.06700000
H        3.78010000      -1.46410000       0.96840000
H        3.82490000       1.05460000       1.30250000
H        2.53160000       1.22500000       0.02650000
H        0.27250000      -1.17410000       1.87640000
