10
Properties=species:S:1:pos:R:3 gdb_2822=T pbc="F F F"
O       -0.26960000       0.31690000       0.73660000
C        0.26200000       0.77480000      -0.23900000
C        1.38370000       1.76920000      -0.15080000
O        2.30220000       1.76800000      -1.24510000
C        1.46650000       2.90440000      -1.10970000
C        0.46550000       3.11460000      -2.13570000
N       -0.32850000       3.31470000      -2.95080000
H       -0.02230000       0.49600000      -1.27450000
H        1.81420000       1.90800000       0.83930000
H        1.95910000       3.81380000      -0.77040000
