18
Properties=species:S:1:pos:R:3 gdb_77244=T pbc="F F F"
C       -0.12700000       1.51780000       0.13110000
C        0.03400000       0.02020000       0.04770000
O       -1.10740000      -0.68340000      -0.36500000
C        1.35410000      -0.60610000      -0.34320000
O        2.43800000       0.25830000      -0.55860000
C        0.83380000      -0.75090000       1.07800000
N        1.55870000      -0.06960000       2.10180000
C        1.34220000      -0.27390000       3.42920000
O        0.49670000      -1.00620000       3.89530000
H        0.79600000       2.00960000       0.44140000
H       -0.40330000       1.92520000      -0.84860000
H       -0.91900000       1.76870000       0.84280000
H       -1.28520000      -0.44860000      -1.28360000
H        1.30790000      -1.47940000      -0.99130000
H        3.24820000      -0.25640000      -0.47190000
H        0.42280000      -1.70100000       1.39750000
H        2.31940000       0.52480000       1.80910000
H        2.04780000       0.31460000       4.04940000
