20
Properties=species:S:1:pos:R:3 gdb_92242=T pbc="F F F"
C       -0.19750000       1.57820000      -0.02980000
C        0.04170000       0.07660000       0.02470000
C        1.16950000      -0.57170000      -0.86120000
C        1.64490000      -1.43550000       0.35110000
N        2.87420000      -0.91400000       1.01550000
C        2.04950000      -0.07150000       1.91500000
C        1.38510000      -0.70990000       3.16320000
O        0.13820000      -0.94470000       2.45340000
C        0.73490000      -0.53740000       1.23320000
H        0.73470000       2.13050000       0.13220000
H       -0.59820000       1.88030000      -1.00320000
H       -0.91360000       1.89130000       0.73760000
H       -0.89960000      -0.46220000      -0.14090000
H        0.81290000      -1.12810000      -1.73010000
H        1.93870000       0.13700000      -1.17610000
H        1.54170000      -2.51820000       0.26210000
H        3.41920000      -1.62230000       1.49810000
H        2.38480000       0.96210000       2.02570000
H        1.84800000      -1.64270000       3.50970000
H        1.23080000      -0.03960000       4.01630000
