17
Properties=species:S:1:pos:R:3 gdb_7765=T pbc="F F F"
C       -0.00800000       1.56460000       0.01300000
C        0.05470000       0.03950000      -0.00780000
C        0.64810000      -0.50610000      -1.31250000
C        0.96530000      -1.97280000      -1.19810000
C        1.21930000      -2.54090000      -0.01760000
C        1.24820000      -1.75600000       1.24390000
O        1.63190000      -2.22350000       2.30260000
N        0.85730000      -0.44170000       1.11600000
H        0.99470000       1.99520000      -0.07300000
H       -0.61870000       1.93410000      -0.81610000
H       -0.45750000       1.92690000       0.94390000
H       -0.97360000      -0.35170000       0.07580000
H       -0.05520000      -0.32580000      -2.13260000
H        1.56680000       0.04510000      -1.56490000
H        1.01460000      -2.55650000      -2.11390000
H        1.47320000      -3.58880000       0.09020000
H        0.75360000       0.03410000       2.00190000
