17
Properties=species:S:1:pos:R:3 gdb_125881=T pbc="F F F"
C       -0.10130000       1.52190000      -0.17250000
C       -0.00540000       0.02520000       0.00690000
C        1.28610000      -0.70590000      -0.20200000
C        0.71740000      -0.61180000       1.19870000
C        1.37530000       0.19300000       2.23720000
N        2.31330000       1.08040000       2.00700000
O        2.61130000       1.58880000       3.28020000
C        1.82120000       0.93470000       4.12930000
N        1.03770000       0.06770000       3.57670000
H        0.80810000       2.02380000       0.16680000
H       -0.24900000       1.76830000      -1.22950000
H       -0.94670000       1.93500000       0.38830000
H       -0.90250000      -0.51820000      -0.27810000
H        1.27740000      -1.67920000      -0.67980000
H        2.17050000      -0.11010000      -0.40090000
H        0.24860000      -1.49680000       1.61230000
H        1.91050000       1.18510000       5.17650000
