14
Properties=species:S:1:pos:R:3 gdb_10848=T pbc="F F F"
O        0.03990000       1.37860000      -0.16370000
C        0.02890000      -0.02560000      -0.00500000
C        0.68050000      -0.45470000       1.30300000
O        0.50230000      -1.85670000       1.52670000
C       -0.63490000      -2.49890000       1.16990000
O       -0.80820000      -3.64040000       1.46970000
O       -1.55260000      -1.83140000       0.43500000
C       -1.42640000      -0.45100000       0.07510000
H        0.92750000       1.65470000      -0.41230000
H        0.51680000      -0.53920000      -0.84630000
H        1.76160000      -0.29040000       1.30210000
H        0.24330000       0.11740000       2.13110000
H       -1.94190000       0.16970000       0.81810000
H       -1.93600000      -0.33840000      -0.88380000
