16
Properties=species:S:1:pos:R:3 gdb_45957=T pbc="F F F"
N       -0.03590000       1.27100000       0.42110000
C        0.01940000       0.05230000       0.06980000
C        1.24760000      -0.76840000      -0.25040000
O        1.33800000      -1.88200000       0.65970000
C        0.23950000      -2.68720000       0.78960000
N        0.30500000      -3.84690000       1.28640000
C       -1.06490000      -2.12720000       0.31530000
C       -1.84220000      -1.15240000       1.15410000
N       -1.14920000      -0.71630000      -0.04680000
H        0.89710000       1.68310000       0.42910000
H        1.21550000      -1.13670000      -1.28420000
H        2.16340000      -0.19410000      -0.10620000
H        1.27030000      -4.07660000       1.53100000
H       -1.62450000      -2.80470000      -0.32220000
H       -2.92620000      -1.15930000       1.10180000
H       -1.42120000      -0.84840000       2.10800000
