21
Properties=species:S:1:pos:R:3 gdb_2549=T pbc="F F F"
C       -0.18660000       1.45520000      -0.09990000
C       -0.07570000      -0.06720000       0.02750000
C        0.80740000      -0.54890000       1.19550000
C        0.12870000      -0.34570000       2.56380000
C        1.06350000      -0.45230000       3.77470000
C        1.20200000      -2.01360000       0.98920000
O        1.99620000      -2.10580000      -0.18730000
H        0.80010000       1.90890000      -0.24580000
H       -0.80720000       1.73130000      -0.95840000
H       -0.63450000       1.91720000       0.78620000
H       -1.07880000      -0.50380000       0.13740000
H        0.34000000      -0.47390000      -0.89930000
H        1.74080000       0.03290000       1.17860000
H       -0.34450000       0.64220000       2.57900000
H       -0.69230000      -1.06970000       2.66550000
H        1.51610000      -1.44460000       3.86550000
H        1.87880000       0.27650000       3.70610000
H        0.52110000      -0.25610000       4.70510000
H        1.76110000      -2.38560000       1.86030000
H        0.28830000      -2.62590000       0.90010000
H        2.18760000      -3.03390000      -0.34880000
