20
Properties=species:S:1:pos:R:3 gdb_67880=T pbc="F F F"
C       -0.01540000       1.56710000      -0.13530000
C       -0.00810000       0.04830000       0.00440000
C        0.20680000      -0.60480000      -1.33690000
C        0.24610000      -1.92880000      -1.43300000
C        0.06940000      -2.71200000      -0.16470000
N       -0.12730000      -1.89550000       1.03680000
C        0.74850000      -0.65530000       1.19710000
C       -0.33300000      -0.15820000       2.18280000
C       -1.05640000      -0.68920000       0.92470000
H        0.93490000       1.91010000      -0.56140000
H       -0.80760000       1.87710000      -0.82720000
H       -0.16870000       2.10060000       0.80350000
H        0.32550000       0.03960000      -2.20380000
H        0.39790000      -2.45090000      -2.37340000
H       -0.79080000      -3.39190000      -0.24470000
H        0.93910000      -3.35940000       0.01640000
H        1.82810000      -0.73720000       1.34600000
H       -0.45520000      -0.77850000       3.07040000
H       -0.38600000       0.90600000       2.40200000
H       -2.12810000      -0.81160000       0.74900000
