16
Properties=species:S:1:pos:R:3 gdb_43753=T pbc="F F F"
O        0.12150000       0.01200000       0.01960000
C        0.05310000       1.20600000      -0.02730000
N       -1.05300000       2.08200000      -0.05870000
C       -0.19020000       3.27180000      -0.03390000
C       -0.53550000       4.47410000      -0.87610000
C       -1.67740000       5.21250000      -0.34030000
C       -2.62290000       5.79470000       0.11850000
C        0.71440000       3.25350000       1.15570000
C        1.03280000       2.37070000      -0.06090000
H       -1.86810000       1.97010000       0.53490000
H        0.33860000       5.13400000      -0.93440000
H       -0.75610000       4.14290000      -1.89810000
H       -3.45640000       6.32130000       0.51340000
H        1.37840000       4.10540000       1.27670000
H        0.39160000       2.79650000       2.08650000
H        1.95300000       2.45610000      -0.62130000
