22
Properties=species:S:1:pos:R:3 gdb_120619=T pbc="F F F"
C        0.00900000       1.63660000      -0.15850000
C       -0.01820000       0.13280000       0.02940000
C       -1.31540000      -0.52660000      -0.41460000
O       -1.59140000      -0.31660000      -1.79180000
C        1.24650000      -0.65600000      -0.07310000
N        0.56710000      -0.50070000       1.21550000
C        1.21550000       0.31670000       2.24140000
C        1.79110000      -0.60330000       3.31710000
O        2.72410000      -1.52880000       2.78710000
H        0.99800000       2.06610000       0.01260000
H       -0.30000000       1.87350000      -1.18010000
H       -0.70010000       2.12550000       0.52010000
H       -1.27870000      -1.59450000      -0.15750000
H       -2.16140000      -0.08610000       0.12570000
H       -0.87800000      -0.72360000      -2.29490000
H        1.24950000      -1.66090000      -0.49290000
H        2.17250000      -0.10350000      -0.22380000
H        2.01990000       0.94930000       1.83630000
H        0.46640000       0.97570000       2.69750000
H        2.33000000      -0.00940000       4.06300000
H        0.96500000      -1.12060000       3.82800000
H        2.23070000      -2.08890000       2.17830000
