21
Properties=species:S:1:pos:R:3 gdb_94291=T pbc="F F F"
O        0.45750000       0.85140000      -0.75380000
C        0.11550000      -0.29070000      -0.00310000
C        0.01700000      -0.15640000       1.54440000
C       -1.29480000      -0.99170000       1.52130000
C       -1.33800000      -0.81510000      -0.00600000
C       -2.54450000      -0.26370000      -0.71360000
C       -2.25160000       0.05690000      -2.19010000
C       -1.75810000      -1.41110000      -2.40000000
C       -2.08750000      -1.71700000      -0.93290000
H       -0.16730000       1.54680000      -0.52060000
H        0.82990000      -1.06260000      -0.30750000
H        0.85260000      -0.53910000       2.13420000
H       -0.16280000       0.88470000       1.83140000
H       -1.14170000      -2.03220000       1.82370000
H       -2.13850000      -0.59050000       2.08940000
H       -3.39700000       0.10270000      -0.15090000
H       -3.16610000       0.25990000      -2.75230000
H       -1.52800000       0.84910000      -2.38960000
H       -2.38250000      -1.96360000      -3.10530000
H       -0.71040000      -1.53870000      -2.68960000
H       -2.53540000      -2.63410000      -0.56530000
