16
Properties=species:S:1:pos:R:3 gdb_13749=T pbc="F F F"
C       -0.05930000       1.51630000       0.06590000
C        0.06460000       0.02700000      -0.18260000
O        1.12350000      -0.49520000      -0.46040000
C       -1.20900000      -0.75980000      -0.07600000
C       -1.30680000      -2.08160000      -0.78020000
C       -1.25550000      -2.08190000       0.72510000
C       -0.06160000      -2.62300000       1.43050000
O       -0.13620000      -3.17080000       2.50450000
H        0.91790000       1.99140000      -0.02170000
H       -0.75440000       1.96260000      -0.65490000
H       -0.47600000       1.69940000       1.06300000
H       -2.11400000      -0.16880000       0.01510000
H       -2.24260000      -2.34760000      -1.25660000
H       -0.40550000      -2.39480000      -1.29710000
H       -2.18080000      -2.25250000       1.26510000
H        0.90050000      -2.50750000       0.89660000
