19
Properties=species:S:1:pos:R:3 gdb_112632=T pbc="F F F"
C       -0.14570000       1.48640000       0.00730000
C       -0.02650000      -0.00020000      -0.03950000
C       -0.04240000      -0.78270000      -1.13300000
C        0.13110000      -2.19310000      -0.76290000
O        0.27650000      -3.14330000      -1.51200000
C        0.15020000      -2.27830000       0.77060000
C        1.33160000      -3.13940000       1.24990000
O        1.21780000      -4.47140000       0.81210000
C        0.15680000      -0.80870000       1.22860000
H        0.73540000       1.92990000       0.48730000
H       -0.25520000       1.92170000      -0.98840000
H       -1.00960000       1.78400000       0.61480000
H       -0.13130000      -0.45250000      -2.16050000
H       -0.77090000      -2.78390000       1.08370000
H        2.27410000      -2.67200000       0.91140000
H        1.35850000      -3.15780000       2.34570000
H        1.01410000      -4.42730000      -0.13520000
H        1.10620000      -0.53450000       1.71030000
H       -0.62750000      -0.58340000       1.96060000
