14
Properties=species:S:1:pos:R:3 gdb_2451=T pbc="F F F"
O        0.02060000      -0.00500000       0.16290000
C       -0.03040000       1.19640000       0.03330000
C       -1.29450000       2.07680000       0.00070000
C       -0.78140000       3.50460000       0.05030000
C        0.06790000       3.93370000       1.22950000
C        0.72580000       3.43410000      -0.03520000
N        1.05160000       2.03980000      -0.09250000
H       -1.84830000       1.87150000      -0.92120000
H       -1.94310000       1.79860000       0.83610000
H       -1.31670000       4.27290000      -0.49320000
H        0.11320000       4.99730000       1.43820000
H        0.11190000       3.29460000       2.10610000
H        1.30700000       4.09580000      -0.66710000
H        1.97490000       1.68480000       0.10350000
