20
Properties=species:S:1:pos:R:3 gdb_94090=T pbc="F F F"
O       -0.14730000       1.45520000       0.10790000
C        0.00310000       0.04690000       0.02540000
C        0.76340000      -0.52760000       1.22960000
C        0.79020000      -2.06180000       1.17600000
N       -0.55210000      -2.59620000       1.03450000
C       -1.34110000      -2.08810000      -0.08180000
C       -1.39900000      -0.55610000      -0.05350000
C       -1.07930000      -3.49410000       1.91300000
O       -2.19480000      -3.96800000       1.85620000
H        0.72940000       1.85030000       0.15300000
H        0.55160000      -0.22490000      -0.89470000
H        1.79120000      -0.14350000       1.25080000
H        0.26490000      -0.19510000       2.14740000
H        1.41040000      -2.39000000       0.32760000
H        1.23870000      -2.47760000       2.08310000
H       -0.89140000      -2.43000000      -1.02580000
H       -2.33340000      -2.53320000      -0.00090000
H       -1.97210000      -0.22190000       0.81890000
H       -1.91140000      -0.18310000      -0.94560000
H       -0.35610000      -3.75330000       2.71240000
