23
Properties=species:S:1:pos:R:3 gdb_116337=T pbc="F F F"
O       -0.05970000       1.45130000       0.06870000
C        0.02940000       0.03310000       0.01380000
C       -1.38710000      -0.53660000      -0.04580000
C       -2.15630000      -0.05770000      -1.28950000
C       -3.53140000      -0.72760000      -1.37040000
C       -3.41320000      -2.24690000      -1.57450000
C       -2.38610000      -2.90270000      -0.64910000
C       -0.92960000      -2.94810000      -1.04850000
C       -1.36850000      -2.05270000       0.08560000
H        0.83210000       1.80960000       0.05510000
H        0.59600000      -0.29680000      -0.87190000
H        0.54890000      -0.36430000       0.90110000
H       -1.91980000      -0.14000000       0.83100000
H       -2.25000000       1.03030000      -1.24490000
H       -1.57950000      -0.28010000      -2.19890000
H       -4.07830000      -0.52380000      -0.43990000
H       -4.12440000      -0.29160000      -2.18210000
H       -4.39130000      -2.71350000      -1.41670000
H       -3.14840000      -2.44920000      -2.62040000
H       -2.74800000      -3.77150000      -0.10790000
H       -0.34820000      -3.83240000      -0.80970000
H       -0.66270000      -2.49030000      -1.99630000
H       -1.09370000      -2.39970000       1.07880000
