17
Properties=species:S:1:pos:R:3 gdb_98806=T pbc="F F F"
C        0.10090000       1.36710000      -0.22480000
N       -0.13640000      -0.06150000      -0.29760000
C       -1.24090000      -0.64240000       0.22950000
O       -2.13350000      -0.05880000       0.81900000
C       -1.27240000      -2.16280000       0.06290000
C       -2.62260000      -2.80130000      -0.30740000
O       -2.02630000      -3.32540000      -1.54780000
C       -0.82150000      -2.74030000      -1.26120000
N        0.25140000      -2.67150000      -1.91170000
H        1.08540000       1.57760000       0.20560000
H        0.04610000       1.83310000      -1.21520000
H       -0.67110000       1.80000000       0.41240000
H        0.47630000      -0.64270000      -0.85660000
H       -0.77890000      -2.61920000       0.92480000
H       -2.97410000      -3.61670000       0.32610000
H       -3.42530000      -2.09500000      -0.52150000
H        0.19230000      -3.15010000      -2.81100000
