20
Properties=species:S:1:pos:R:3 gdb_72957=T pbc="F F F"
C       -0.04160000       1.56660000       0.04880000
C       -0.00650000       0.06480000       0.07120000
C       -1.26720000      -0.81640000      -0.00550000
C       -0.62750000      -1.80580000       1.02020000
C        0.62050000      -0.92100000       1.05760000
C        1.21430000      -0.76340000      -0.34300000
C        1.21550000      -1.85120000      -1.41010000
C        2.44810000      -0.00980000      -0.33290000
N        3.44520000       0.57800000      -0.34490000
H        0.93790000       1.99940000       0.26690000
H       -0.35670000       1.93450000      -0.93500000
H       -0.75570000       1.94540000       0.78820000
H       -2.13690000      -0.30190000       0.40950000
H       -1.53920000      -1.20830000      -0.98970000
H       -1.15760000      -1.80570000       1.97470000
H       -0.48880000      -2.84410000       0.70530000
H        1.23560000      -0.72180000       1.92750000
H        0.29860000      -2.44110000      -1.38800000
H        1.31100000      -1.41100000      -2.40720000
H        2.05840000      -2.53240000      -1.26090000
