19
Properties=species:S:1:pos:R:3 gdb_126739=T pbc="F F F"
C        0.11900000       1.50350000       0.06710000
C       -0.07800000      -0.00080000      -0.12640000
N        0.67630000      -0.52640000      -1.24800000
C        1.76330000      -1.33180000      -1.22790000
C        2.16240000      -1.52760000      -2.53290000
C        1.22820000      -0.77660000      -3.28080000
O        1.23090000      -0.68260000      -4.62220000
C        0.20190000       0.12150000      -5.18710000
N        0.33050000      -0.16900000      -2.51340000
H        1.16680000       1.73650000       0.27880000
H       -0.17790000       2.04000000      -0.83680000
H       -0.49150000       1.85970000       0.90260000
H        0.24270000      -0.55450000       0.76090000
H       -1.13670000      -0.22530000      -0.29350000
H        2.16530000      -1.70430000      -0.29820000
H        2.98440000      -2.11810000      -2.89950000
H        0.35290000       0.08820000      -6.26720000
H       -0.78900000      -0.26990000      -4.93240000
H        0.26730000       1.15450000      -4.82870000
