19
Properties=species:S:1:pos:R:3 gdb_108946=T pbc="F F F"
C        0.04490000       1.63860000      -0.00070000
C        0.13900000       0.13200000      -0.02760000
C        0.72490000      -0.66270000      -1.17720000
N        1.69920000      -0.01900000      -2.02430000
C        2.72990000       0.42140000      -1.22440000
C        3.88070000       1.23470000      -1.75250000
O        4.79410000       1.53410000      -0.73310000
N        2.68380000       0.04680000       0.00540000
C        1.42870000      -0.64440000       0.18560000
H        0.95760000       2.11420000      -0.36630000
H       -0.79060000       1.99180000      -0.61520000
H       -0.11690000       1.99490000       1.02170000
H       -0.71410000      -0.37540000       0.41670000
H        0.20410000      -1.51300000      -1.60330000
H        1.43770000       0.46070000      -2.87090000
H        4.36650000       0.66850000      -2.56430000
H        3.49430000       2.16150000      -2.20840000
H        4.44890000       1.08930000       0.05790000
H        1.43660000      -1.48240000       0.87250000
