21
Properties=species:S:1:pos:R:3 gdb_99612=T pbc="F F F"
C        0.14490000       1.45730000       0.14910000
O       -0.08980000       0.06500000       0.16030000
C        0.65730000      -0.64890000       1.13790000
C        0.03500000      -1.96850000       1.28060000
C       -0.44720000      -3.05990000       1.41970000
C        2.14420000      -0.77160000       0.78860000
C        2.42470000      -1.34610000      -0.58530000
C        3.08180000       0.27280000       1.35430000
C        3.06820000      -1.12130000       1.92800000
H        1.15400000       1.71230000      -0.19990000
H       -0.58660000       1.89240000      -0.53620000
H        0.00100000       1.89950000       1.14760000
H        0.57700000      -0.12480000       2.10720000
H       -0.88370000      -4.02040000       1.54040000
H        1.97160000      -0.73060000      -1.36820000
H        3.50130000      -1.40080000      -0.77140000
H        2.01160000      -2.35610000      -0.67520000
H        3.92870000       0.57300000       0.74610000
H        2.66620000       1.07240000       1.95860000
H        2.63760000      -1.26430000       2.91400000
H        3.90430000      -1.77730000       1.71240000
