20
Properties=species:S:1:pos:R:3 gdb_38170=T pbc="F F F"
C        0.33770000       1.55720000       0.48620000
C        1.57330000       1.59000000      -0.46240000
C        1.48480000       0.06620000      -0.49420000
N        2.11130000      -0.86110000      -1.41970000
C        2.44550000      -0.91750000       0.04040000
C        1.90260000      -1.99070000       0.90900000
C        0.63980000      -2.00820000       1.34260000
C       -0.41570000      -0.98290000       1.00730000
C        0.03510000       0.10030000       0.01090000
H        0.63670000       1.57600000       1.53820000
H       -0.44250000       2.30370000       0.32560000
H        1.33400000       2.02960000      -1.43580000
H        2.49560000       2.03960000      -0.08750000
H        1.46440000      -1.61690000      -1.64210000
H        3.47080000      -0.61250000       0.23850000
H        2.58510000      -2.78290000       1.20650000
H        0.31310000      -2.82270000       1.98580000
H       -1.29350000      -1.51460000       0.61740000
H       -0.76620000      -0.51820000       1.94030000
H       -0.65190000       0.14060000      -0.84220000
