23
Properties=species:S:1:pos:R:3 gdb_62929=T pbc="F F F"
C       -0.11930000       1.48690000      -0.03400000
C        0.01060000      -0.03330000      -0.01250000
O       -1.26360000      -0.62420000      -0.20690000
C        1.20830000      -0.58720000      -0.85910000
C        2.08120000      -0.40620000       0.41780000
C        0.76310000      -0.59720000       1.22580000
C        0.44640000      -2.09510000       1.38310000
C        0.95630000      -2.90310000       0.16330000
C        0.97380000      -2.07900000      -1.14830000
H        0.83150000       1.99090000       0.15430000
H       -0.47830000       1.82690000      -1.01470000
H       -0.83880000       1.81340000       0.72380000
H       -1.70000000      -0.16850000      -0.93400000
H        1.48540000      -0.03230000      -1.76130000
H        2.88430000      -1.12670000       0.58770000
H        2.49330000       0.60000000       0.50970000
H        0.64250000      -0.05440000       2.16810000
H        0.91450000      -2.47740000       2.29730000
H       -0.63390000      -2.21290000       1.50210000
H        1.97670000      -3.24130000       0.37240000
H        0.36340000      -3.81360000       0.03380000
H        0.02200000      -2.18490000      -1.67810000
H        1.75660000      -2.46120000      -1.81310000
