13
Properties=species:S:1:pos:R:3 gdb_123302=T pbc="F F F"
C        0.17350000      -1.20110000      -0.00660000
C        0.02600000      -0.00630000       0.00220000
C       -0.12580000       1.39500000       0.01240000
C       -1.24590000       2.20900000       0.03210000
C       -0.74130000       3.53090000       0.03300000
N        0.60280000       3.53800000       0.01510000
N        0.94290000       2.24920000       0.00310000
C       -1.48930000       4.73510000       0.05000000
C       -2.15500000       5.73690000       0.06470000
H        0.29440000      -2.25630000      -0.01440000
H       -2.27530000       1.89460000       0.04400000
H        1.91700000       1.99370000      -0.01140000
H       -2.73340000       6.62730000       0.07760000
