13
Properties=species:S:1:pos:R:3 gdb_21012=T pbc="F F F"
C        0.00640000       1.43720000       0.04380000
N       -0.01770000      -0.01130000      -0.03320000
C       -0.08620000      -0.78340000      -1.14930000
C       -0.02560000      -2.09410000      -0.73500000
C        0.08230000      -2.00420000       0.67180000
N        0.08830000      -0.72990000       1.08850000
C        0.17050000      -3.07890000       1.59980000
N        0.24100000      -3.97980000       2.32260000
H        1.02460000       1.79730000       0.21650000
H       -0.37020000       1.84900000      -0.89360000
H       -0.63060000       1.75990000       0.86840000
H       -0.17330000      -0.34610000      -2.13100000
H       -0.06120000      -2.98440000      -1.33960000
