20
Properties=species:S:1:pos:R:3 gdb_81445=T pbc="F F F"
C       -0.19740000       1.62870000      -0.02450000
C        0.02510000       0.12650000       0.02000000
C        1.18060000      -0.59750000      -0.72460000
C        2.47360000       0.09740000      -0.24090000
C        2.11620000       0.08850000       1.26010000
C        3.07350000      -0.06830000       2.37070000
N        2.32390000       1.19800000       2.19290000
C        0.75390000      -0.59880000       1.18210000
O        1.05480000      -1.68570000       0.24610000
H        0.70360000       2.19710000       0.21510000
H       -0.54170000       1.93690000      -1.01800000
H       -0.96730000       1.92260000       0.69630000
H       -0.89990000      -0.41690000      -0.19040000
H        1.11540000      -0.91460000      -1.76570000
H        3.35570000      -0.50250000      -0.47610000
H        2.60790000       1.10350000      -0.65130000
H        2.80290000      -0.63850000       3.25580000
H        4.13420000      -0.08080000       2.13250000
H        2.93180000       1.89890000       1.77500000
H        0.27070000      -0.90760000       2.10860000
