16
Properties=species:S:1:pos:R:3 gdb_26015=T pbc="F F F"
N       -0.17050000       1.41990000       0.11630000
C        0.09140000       0.05050000       0.03760000
O        1.22250000      -0.39880000       0.01580000
N       -1.04470000      -0.72260000       0.03140000
C       -1.06680000      -2.12590000       0.01460000
C        0.00210000      -2.99540000      -0.03580000
N       -0.52240000      -4.26880000      -0.04610000
C       -1.88670000      -4.22410000      -0.00090000
C       -2.26260000      -2.90070000       0.03590000
H        0.65540000       1.96360000      -0.08610000
H       -0.99410000       1.76110000      -0.35820000
H       -1.92590000      -0.26960000       0.20880000
H        1.05700000      -2.79970000      -0.06030000
H        0.02860000      -5.10760000      -0.07650000
H       -2.47920000      -5.12420000       0.00090000
H       -3.27460000      -2.52610000       0.07210000
