14
Properties=species:S:1:pos:R:3 gdb_18662=T pbc="F F F"
O       -0.02000000      -0.01790000       0.27470000
C       -0.03730000       1.17050000       0.06410000
N       -1.22080000       1.86290000      -0.14420000
C       -1.32900000       3.25270000      -0.06760000
C       -0.25230000       4.03650000       0.01740000
C        1.08870000       3.41090000      -0.01870000
C        1.64880000       2.64070000       1.14020000
N        1.14530000       1.93990000      -0.04530000
H       -2.04930000       1.29020000      -0.12320000
H       -2.34370000       3.63190000      -0.07570000
H       -0.34840000       5.11310000       0.06400000
H        1.81320000       3.87310000      -0.68840000
H        2.72240000       2.57480000       1.29050000
H        1.04870000       2.59590000       2.04500000
