19
Properties=species:S:1:pos:R:3 gdb_55933=T pbc="F F F"
N       -0.00470000       1.35390000       0.01860000
C        0.03050000       0.01240000       0.26880000
O        1.01890000      -0.53950000       0.71440000
C       -1.26500000      -0.73530000      -0.04580000
C       -1.07480000      -2.24610000       0.01560000
C       -0.80920000      -2.95510000       1.37000000
N       -1.93330000      -3.93890000       1.14710000
C       -3.15460000      -3.11990000       1.09400000
C       -2.29600000      -3.15710000      -0.10760000
H        0.80380000       1.90610000       0.25270000
H       -0.82730000       1.81790000      -0.32350000
H       -2.02850000      -0.40860000       0.67200000
H       -1.63100000      -0.43380000      -1.03620000
H       -0.30520000      -2.53630000      -0.70310000
H        0.15090000      -3.46750000       1.41900000
H       -0.93440000      -2.35050000       2.27440000
H       -4.06460000      -3.71210000       1.07220000
H       -3.21650000      -2.22420000       1.70980000
H       -2.60840000      -3.66230000      -1.01700000
