20
Properties=species:S:1:pos:R:3 gdb_102219=T pbc="F F F"
C        0.27570000       0.99850000       0.45550000
C       -0.08740000      -0.31110000      -0.25170000
N        0.58890000      -0.49740000      -1.52680000
C        2.02000000      -0.80570000      -1.54620000
C        2.35570000      -2.02870000      -0.81940000
C        2.63810000      -3.02910000      -0.21170000
C        2.98830000      -4.24680000       0.50530000
C       -0.07800000      -0.40650000      -2.71280000
O        0.41400000      -0.53460000      -3.81500000
H        1.34170000       1.04440000       0.69760000
H        0.02970000       1.86230000      -0.16940000
H       -0.27950000       1.08280000       1.39490000
H        0.14640000      -1.16540000       0.39420000
H       -1.16450000      -0.34130000      -0.44570000
H        2.28690000      -0.89300000      -2.60370000
H        2.58970000       0.03850000      -1.13560000
H        3.85740000      -4.73490000       0.05100000
H        3.23260000      -4.04060000       1.55310000
H        2.16170000      -4.96560000       0.49090000
H       -1.15420000      -0.19410000      -2.55870000
