14
Properties=species:S:1:pos:R:3 gdb_70170=T pbc="F F F"
O        0.24150000       1.30810000      -0.45090000
C        0.01960000      -0.00060000      -0.08160000
C       -0.49000000      -1.01590000      -1.10820000
C       -1.32690000      -0.66050000       0.07810000
O       -1.26840000      -1.60760000       1.14510000
C       -0.02150000      -1.62070000       1.70830000
N        0.37160000      -2.37870000       2.63390000
C        0.81590000      -0.53330000       1.05440000
O        1.85770000      -0.07080000       1.44450000
H        1.07500000       1.56270000      -0.02750000
H       -0.76140000      -0.55590000      -2.05240000
H       -0.05830000      -2.00940000      -1.17120000
H       -2.27680000      -0.14680000       0.01040000
H       -0.37070000      -3.01840000       2.92640000
