20
Properties=species:S:1:pos:R:3 gdb_47927=T pbc="F F F"
O        0.05170000       0.00240000       0.03510000
C       -0.03950000       1.21740000       0.07550000
C       -1.39570000       1.91500000       0.00980000
C       -1.78920000       2.39940000      -1.40000000
O       -1.07600000       3.53100000      -1.86150000
C        0.22270000       3.28240000      -2.38180000
C        1.31440000       3.86650000      -1.48140000
C        1.16850000       3.44330000      -0.01090000
N        1.07610000       2.00720000       0.19150000
H       -2.12360000       1.16080000       0.32000000
H       -1.46050000       2.75630000       0.70670000
H       -1.69570000       1.56420000      -2.10990000
H       -2.84090000       2.70220000      -1.38020000
H        0.37970000       2.20450000      -2.51830000
H        0.28280000       3.74570000      -3.37480000
H        2.29100000       3.55700000      -1.87600000
H        1.28410000       4.96180000      -1.52480000
H        2.01790000       3.81710000       0.56970000
H        0.27450000       3.91420000       0.40260000
H        1.93390000       1.47310000       0.16260000
