20
Properties=species:S:1:pos:R:3 gdb_79454=T pbc="F F F"
C       -0.23280000       1.66500000       1.26870000
C       -0.13480000       0.22510000       0.77220000
C        0.77660000       0.00880000      -0.45680000
O        2.04260000       0.56310000       0.01160000
C        2.09750000      -0.58540000       0.85370000
C        1.32440000      -1.47720000      -0.12040000
N        0.59310000      -2.07610000       0.98500000
C       -0.68120000      -2.74570000       0.79240000
C        0.70650000      -0.74700000       1.64510000
H        0.75820000       2.10800000       1.38310000
H       -0.80260000       2.28570000       0.56850000
H       -0.74580000       1.70360000       2.23570000
H       -1.13810000      -0.17700000       0.60940000
H        0.48230000       0.36230000      -1.44370000
H        3.04870000      -0.79160000       1.33860000
H        1.74240000      -2.09540000      -0.91450000
H       -0.50430000      -3.68460000       0.25670000
H       -1.10740000      -2.99670000       1.76920000
H       -1.43650000      -2.17740000       0.22700000
H        0.60980000      -0.71110000       2.73060000
