20
Properties=species:S:1:pos:R:3 gdb_35848=T pbc="F F F"
N       -0.06150000      -1.16980000      -0.15010000
C       -0.04080000      -0.01620000      -0.07740000
C       -0.00640000       1.44690000       0.03040000
C       -0.83480000       1.88990000       1.25990000
C       -1.09550000       3.40430000       1.33990000
C        0.09860000       4.25400000       1.70620000
C        1.26970000       4.27330000       1.07080000
C        1.63470000       3.44920000      -0.14150000
C        1.46420000       1.92770000       0.01260000
H       -0.50140000       1.83900000      -0.87010000
H       -1.79840000       1.37130000       1.21880000
H       -0.33170000       1.54980000       2.17170000
H       -1.51320000       3.74160000       0.37890000
H       -1.88720000       3.56860000       2.07730000
H       -0.03000000       4.91260000       2.56190000
H        2.04020000       4.94660000       1.43860000
H        1.04830000       3.78370000      -1.01090000
H        2.68000000       3.64370000      -0.40070000
H        1.96290000       1.58750000       0.92670000
H        1.96790000       1.43320000      -0.82460000
