12
Properties=species:S:1:pos:R:3 gdb_27046=T pbc="F F F"
N        0.13430000       1.36030000       0.16000000
C       -0.03810000       0.02240000       0.05390000
C       -1.12360000      -0.79870000       0.01780000
O       -0.63560000      -2.11480000      -0.01940000
C        0.70530000      -2.07210000      -0.01590000
O        1.47110000      -2.97420000      -0.04750000
O        1.09280000      -0.72360000       0.03180000
C       -2.52940000      -0.51750000       0.00660000
O       -3.42480000      -1.33380000      -0.02990000
H        1.02910000       1.71890000      -0.13690000
H       -0.65770000       1.95080000      -0.03590000
H       -2.73920000       0.57880000       0.03450000
