14
Properties=species:S:1:pos:R:3 gdb_128707=T pbc="F F F"
C       -0.01230000       1.38380000       0.00870000
O        0.03300000      -0.04800000      -0.05200000
C        0.63920000      -0.58290000      -1.11540000
N        1.15430000       0.15110000      -2.03500000
O        1.75620000      -0.54630000      -3.08840000
C        1.79890000      -1.93940000      -3.14180000
N        2.35850000      -2.51640000      -4.11800000
N        1.21960000      -2.68210000      -2.11120000
C        0.67150000      -2.03990000      -1.15330000
H        0.99950000       1.79850000       0.02100000
H       -0.54820000       1.78670000      -0.85520000
H       -0.53760000       1.62010000       0.93340000
H        2.72580000      -1.82650000      -4.77450000
H        0.20980000      -2.58700000      -0.33240000
