20
Properties=species:S:1:pos:R:3 gdb_59028=T pbc="F F F"
C        0.02890000       1.61790000      -0.01190000
C       -0.04650000       0.09650000       0.11310000
O        0.53730000      -0.23390000       1.37580000
C       -1.44650000      -0.43880000       0.03470000
C       -1.96440000      -1.23750000      -0.90520000
C       -3.40200000      -1.62500000      -0.62340000
C       -3.65980000      -0.99590000       0.74200000
N       -2.78170000      -1.51680000       1.81470000
C       -2.44590000      -0.23170000       1.13270000
H        1.06440000       1.94600000       0.11490000
H       -0.32730000       1.94100000      -0.99380000
H       -0.57670000       2.10270000       0.75970000
H        0.54230000      -0.34790000      -0.70580000
H        0.30750000      -1.14950000       1.56860000
H       -1.41890000      -1.61270000      -1.76490000
H       -4.08920000      -1.22890000      -1.38300000
H       -3.53830000      -2.71300000      -0.60480000
H       -4.65780000      -0.66470000       1.00740000
H       -3.21890000      -1.30020000       2.70950000
H       -2.47530000       0.68480000       1.71080000
