25
Properties=species:S:1:pos:R:3 gdb_84367=T pbc="F F F"
C       -0.21650000       1.57050000      -0.04790000
C        0.05130000       0.06180000      -0.00200000
C        0.86570000      -0.46870000      -1.16290000
C        1.67500000      -1.45560000      -0.79040000
C        1.54530000      -1.78460000       0.68750000
C        0.61280000      -3.00590000       0.86210000
C        2.90250000      -2.11430000       1.32900000
C        0.83880000      -0.48680000       1.23730000
C        1.81370000       0.54360000       1.82070000
H        0.70890000       2.15230000      -0.08700000
H       -0.80130000       1.82130000      -0.93960000
H       -0.78970000       1.90310000       0.82420000
H       -0.93370000      -0.43050000      -0.02540000
H        0.74650000      -0.09620000      -2.17560000
H        2.32500000      -2.02460000      -1.44840000
H        1.01550000      -3.88470000       0.34630000
H        0.50260000      -3.26310000       1.92200000
H       -0.38310000      -2.80920000       0.45390000
H        3.63360000      -1.31470000       1.18520000
H        2.80490000      -2.29700000       2.40510000
H        3.31630000      -3.02470000       0.88050000
H        0.13530000      -0.76440000       2.03140000
H        2.54830000       0.87560000       1.07940000
H        1.27900000       1.42810000       2.17830000
H        2.36120000       0.13060000       2.67210000
