19
Properties=species:S:1:pos:R:3 gdb_112283=T pbc="F F F"
O       -0.15640000       1.53890000      -0.25860000
C       -0.00740000       0.19530000       0.17240000
C       -1.36030000      -0.47740000       0.00820000
C       -1.75800000      -0.68330000      -1.49130000
C       -1.43150000      -2.16620000      -1.30180000
O       -1.15190000      -3.07540000      -2.03840000
C       -1.37680000      -2.03400000       0.22280000
C       -0.25500000      -2.82820000       0.89720000
O       -0.43960000      -4.21100000       0.66780000
H        0.69830000       1.97520000      -0.19430000
H        0.75300000      -0.33000000      -0.42880000
H        0.31400000       0.14360000       1.22460000
H       -2.09770000       0.06590000       0.60150000
H       -2.82320000      -0.52380000      -1.68570000
H       -1.18080000      -0.13970000      -2.24290000
H       -2.33530000      -2.35180000       0.64970000
H        0.72640000      -2.48830000       0.53010000
H       -0.26510000      -2.68110000       1.98240000
H       -0.50030000      -4.32630000      -0.29040000
