19
Properties=species:S:1:pos:R:3 gdb_89788=T pbc="F F F"
C       -0.22760000       1.51280000      -0.06450000
N       -0.17200000       0.07060000       0.04210000
C       -1.35080000      -0.64570000       0.57280000
C       -0.39310000      -1.54130000       1.35910000
C       -0.62050000      -2.41240000       2.52300000
N       -0.21590000      -2.98080000       1.21880000
C        0.72840000      -0.52990000       1.04870000
C        2.01100000      -1.11250000       0.48910000
O        3.04610000      -1.17270000       1.09960000
H        0.74600000       1.89840000      -0.38300000
H       -0.96480000       1.79890000      -0.82170000
H       -0.50020000       2.00940000       0.88550000
H       -1.99010000      -0.02680000       1.22360000
H       -1.97880000      -1.12210000      -0.19070000
H        0.13000000      -2.48940000       3.30510000
H       -1.64550000      -2.55010000       2.85970000
H       -1.01660000      -3.39240000       0.74470000
H        0.96320000       0.11780000       1.90710000
H        1.90580000      -1.49540000      -0.54900000
