18
Properties=species:S:1:pos:R:3 gdb_45090=T pbc="F F F"
O        0.04310000      -0.01810000       0.21440000
C        0.00340000       1.18090000       0.03640000
C       -1.33680000       1.90920000      -0.10490000
C       -1.34970000       3.01890000      -1.15120000
N       -1.09390000       4.38920000      -0.67740000
C       -0.08100000       3.71170000      -1.50610000
C        1.21500000       3.30490000      -0.85390000
C        1.35630000       3.34110000       0.62980000
C        1.24650000       1.99070000      -0.06710000
H       -2.08340000       1.14370000      -0.32650000
H       -1.59440000       2.33850000       0.87140000
H       -2.08440000       2.89540000      -1.94290000
H       -1.61430000       5.06400000      -1.23110000
H        0.02580000       4.04430000      -2.53530000
H        2.10250000       3.51290000      -1.44170000
H        2.32370000       3.58500000       1.05270000
H        0.50540000       3.70140000       1.19500000
H        2.14390000       1.38540000      -0.11740000
