20
Properties=species:S:1:pos:R:3 gdb_16765=T pbc="F F F"
C        0.23930000       1.32120000      -0.34500000
C       -0.10560000      -0.16710000      -0.23630000
C       -1.55320000      -0.44270000       0.21130000
C       -2.61320000      -0.08010000      -0.87410000
C       -2.97130000      -1.39520000      -1.53410000
O       -1.82920000      -2.16720000      -1.93860000
C       -2.48680000      -2.50500000      -0.70710000
C       -1.79970000      -1.95050000       0.52240000
H        1.28360000       1.46060000      -0.64190000
H       -0.38070000       1.83550000      -1.08700000
H        0.09550000       1.83220000       0.61420000
H        0.07200000      -0.67130000      -1.19160000
H        0.57300000      -0.63190000       0.49080000
H       -1.73780000       0.14960000       1.11440000
H       -3.51820000       0.34510000      -0.42330000
H       -2.23900000       0.65420000      -1.59410000
H       -3.83820000      -1.47580000      -2.18600000
H       -2.96240000      -3.48290000      -0.68960000
H       -0.86920000      -2.47890000       0.75500000
H       -2.46820000      -2.07620000       1.38310000
