21
Properties=species:S:1:pos:R:3 gdb_107888=T pbc="F F F"
C       -0.03930000       1.42260000       0.06440000
O       -0.04930000       0.00780000       0.13110000
C        0.62850000      -0.50590000       1.21580000
C        0.34710000      -0.28060000       2.71820000
C        1.50180000      -1.29980000       2.66340000
C        0.92650000      -2.02600000       1.39760000
C        2.28850000      -1.95210000       0.66470000
C        2.33950000      -1.95580000      -0.85630000
C        2.19460000      -0.61440000       1.43850000
H        0.98330000       1.81630000      -0.02040000
H       -0.60480000       1.70400000      -0.82640000
H       -0.51580000       1.87200000       0.94640000
H        0.58440000       0.70380000       3.13430000
H       -0.61390000      -0.64380000       3.09660000
H        2.02220000      -1.78600000       3.48530000
H        0.17920000      -2.82200000       1.40370000
H        3.03860000      -2.63810000       1.07980000
H        1.58670000      -1.28680000      -1.28010000
H        3.32530000      -1.63750000      -1.21500000
H        2.15930000      -2.96280000      -1.24970000
H        2.90870000       0.21000000       1.49160000
