25
Properties=species:S:1:pos:R:3 gdb_117725=T pbc="F F F"
C        0.01710000       1.39490000      -0.04690000
O        0.00710000      -0.01010000      -0.00710000
C        0.64250000      -0.59830000      -1.12140000
C        0.58790000      -2.12880000      -0.99500000
C        1.32400000      -2.57450000       0.28140000
C       -0.87770000      -2.59850000      -0.96030000
C        1.29200000      -2.70700000      -2.23240000
O        1.27250000      -4.11660000      -2.17030000
C        1.90090000      -4.72410000      -3.27120000
H        1.04290000       1.79740000      -0.05610000
H       -0.50880000       1.78360000      -0.93380000
H       -0.49380000       1.75250000       0.85060000
H        0.14420000      -0.27570000      -2.05320000
H        1.69220000      -0.25880000      -1.17950000
H        0.84880000      -2.14410000       1.16560000
H        1.31620000      -3.66340000       0.36570000
H        2.36960000      -2.24490000       0.26630000
H       -1.41120000      -2.28540000      -1.86560000
H       -0.92780000      -3.68780000      -0.90060000
H       -1.39560000      -2.16920000      -0.09980000
H        0.78670000      -2.36320000      -3.15280000
H        2.33510000      -2.34610000      -2.27970000
H        2.96320000      -4.44060000      -3.34460000
H        1.83360000      -5.80600000      -3.13200000
H        1.41110000      -4.45690000      -4.22160000
