17
Properties=species:S:1:pos:R:3 gdb_20057=T pbc="F F F"
C       -0.16910000       1.35110000      -0.20030000
C        1.26500000       0.98490000       0.08980000
C        0.20970000      -0.08570000       0.07360000
C       -0.22510000      -0.74550000       1.36150000
C       -1.63660000      -1.39850000       1.28720000
O       -1.41190000      -2.78410000       1.64390000
C       -0.07670000      -2.88530000       1.84740000
N        0.66770000      -1.86800000       1.73310000
H       -0.72040000       1.88680000       0.56620000
H       -0.43950000       1.62790000      -1.21300000
H        1.97970000       1.01160000      -0.72470000
H        1.67920000       1.26780000       1.05170000
H        0.21500000      -0.75810000      -0.78080000
H       -0.18300000       0.00230000       2.16360000
H       -2.35500000      -0.97730000       1.99440000
H       -2.06560000      -1.36880000       0.28110000
H        0.25730000      -3.88420000       2.10710000
