14
Properties=species:S:1:pos:R:3 gdb_28649=T pbc="F F F"
N       -0.02030000       1.40040000       0.14690000
C        0.01940000       0.02560000       0.05670000
C       -1.17050000      -0.73250000       0.04190000
N       -1.21030000      -2.05300000       0.00740000
C       -0.04490000      -2.71950000      -0.01540000
C        1.19330000      -2.06910000      -0.00570000
C        1.22570000      -0.68590000       0.02970000
C       -0.10430000      -4.15340000      -0.05450000
N       -0.11280000      -5.31040000      -0.08690000
H        0.80100000       1.90400000      -0.14990000
H       -0.88320000       1.84880000      -0.11940000
H       -2.13080000      -0.21890000       0.06050000
H        2.10950000      -2.64710000      -0.02830000
H        2.17340000      -0.15660000       0.03920000
