18
Properties=species:S:1:pos:R:3 gdb_46609=T pbc="F F F"
O       -0.07930000      -0.06070000      -0.11190000
C       -0.00390000       1.15070000      -0.04880000
C       -1.23300000       2.10690000      -0.02680000
C       -0.67290000       3.55180000       0.07030000
C        0.80430000       3.30820000       0.07520000
C        1.16190000       2.00520000       0.00680000
C        2.66390000       1.88930000       0.06770000
C        3.09720000       3.38340000      -0.10260000
N        1.86580000       4.15930000       0.19400000
H       -1.82950000       1.94890000      -0.93000000
H       -1.87270000       1.85010000       0.82230000
H       -0.97940000       4.18340000      -0.77250000
H       -0.99450000       4.07160000       0.98040000
H        2.99930000       1.49040000       1.03280000
H        3.09570000       1.25110000      -0.70770000
H        3.90590000       3.67330000       0.57290000
H        3.42770000       3.57760000      -1.13150000
H        1.79790000       5.10830000      -0.14200000
