20
Properties=species:S:1:pos:R:3 gdb_58849=T pbc="F F F"
C       -0.01200000       1.60740000       0.33160000
C       -0.02700000       0.09960000       0.02510000
C        0.89150000      -0.69180000       0.96340000
C       -1.45300000      -0.39780000       0.03630000
C       -2.19030000      -0.96140000       1.20960000
N       -1.92110000      -1.86530000       0.09560000
C       -3.00790000      -1.56760000      -0.90390000
C       -2.45780000      -0.13500000      -1.04980000
O       -2.57980000       0.73380000      -1.86670000
H        1.00560000       2.00300000       0.25470000
H       -0.64830000       2.15410000      -0.36940000
H       -0.37350000       1.80250000       1.34750000
H        0.33990000      -0.03520000      -1.00170000
H        0.80870000      -1.76740000       0.78380000
H        1.93300000      -0.39550000       0.80630000
H        0.65280000      -0.49870000       2.01520000
H       -1.59890000      -1.16860000       2.09580000
H       -3.21610000      -0.65880000       1.41210000
H       -2.87060000      -2.14250000      -1.82350000
H       -4.02330000      -1.71350000      -0.52450000
