16
Properties=species:S:1:pos:R:3 gdb_17089=T pbc="F F F"
C       -0.06850000      -1.18700000      -0.05910000
C       -0.01210000       0.01190000       0.00240000
C        0.06270000       1.46700000       0.04320000
O       -0.41430000       1.99680000       1.31120000
C        0.73320000       2.73730000       1.76890000
C        1.18430000       3.50880000       0.50520000
C        1.49410000       2.05270000       0.03620000
C        1.91430000       1.77130000       1.51290000
H       -0.12550000      -2.24650000      -0.10610000
H       -0.54810000       1.88500000      -0.76710000
H        0.50550000       3.19790000       2.72840000
H        0.42270000       4.08060000      -0.03080000
H        2.08890000       4.10070000       0.65330000
H        2.11890000       1.81490000      -0.82260000
H        2.88670000       2.20140000       1.75750000
H        1.82270000       0.75200000       1.89160000
