18
Properties=species:S:1:pos:R:3 gdb_128761=T pbc="F F F"
C       -0.09890000       1.37990000       0.25300000
O       -0.11570000      -0.02090000       0.42150000
C       -1.14550000      -0.63950000      -0.32010000
C       -1.12970000      -2.10970000      -0.05400000
C       -0.98200000      -2.86510000       1.07160000
C       -0.76270000      -2.42890000       2.48670000
C       -1.09750000      -4.19210000       0.56480000
N       -1.29800000      -4.23090000      -0.72840000
O       -1.31450000      -2.90090000      -1.12980000
H        0.72100000       1.76840000       0.86060000
H        0.07110000       1.65920000      -0.79810000
H       -1.04180000       1.84220000       0.58440000
H       -2.12460000      -0.21060000      -0.04270000
H       -1.01740000      -0.47450000      -1.40130000
H       -1.63620000      -2.64250000       3.11360000
H        0.09030000      -2.95060000       2.93350000
H       -0.56020000      -1.35800000       2.52840000
H       -1.03840000      -5.12320000       1.11280000
