12
Properties=species:S:1:pos:R:3 gdb_45932=T pbc="F F F"
N        0.03740000       1.07960000       0.68930000
C       -0.03470000       0.01090000       0.03620000
O        1.03200000      -0.46570000      -0.71520000
C        1.15390000      -1.80160000      -1.00090000
O        2.09340000      -2.20230000      -1.61390000
C        0.05810000      -2.67600000      -0.42720000
O       -1.22830000      -2.06010000      -0.42320000
C       -1.33880000      -0.76550000      -0.04450000
O       -2.40330000      -0.27150000       0.16280000
H        0.97230000       1.48850000       0.62110000
H       -0.02350000      -3.57610000      -1.03490000
H        0.34210000      -2.96980000       0.59240000
