17
Properties=species:S:1:pos:R:3 gdb_108449=T pbc="F F F"
C       -0.10800000       1.47820000       0.10350000
O       -0.01280000       0.05590000       0.06960000
C       -1.23650000      -0.57800000      -0.02690000
C       -2.15570000      -0.66120000       1.22560000
O       -2.28030000      -2.09440000       1.09460000
C       -1.40920000      -2.13180000      -0.04950000
C       -2.19020000      -2.06430000      -1.38580000
C       -2.02080000      -0.52940000      -1.36310000
O       -2.27690000       0.34870000      -2.13560000
H        0.91400000       1.85600000       0.16710000
H       -0.59040000       1.86610000      -0.79950000
H       -0.66820000       1.82010000       0.98570000
H       -1.61330000      -0.38660000       2.13860000
H       -3.12280000      -0.14800000       1.19640000
H       -0.58780000      -2.84210000       0.04730000
H       -1.65970000      -2.50580000      -2.23660000
H       -3.21200000      -2.44890000      -1.35720000
