12
Properties=species:S:1:pos:R:3 gdb_20318=T pbc="F F F"
C       -0.39100000      -0.80970000      -0.96540000
C       -0.08190000       0.05950000      -0.19640000
C        0.30410000       1.11810000       0.72950000
C        1.52640000       1.86500000       0.28420000
C        2.32340000       1.73340000      -0.80680000
O        3.29250000       2.64390000      -0.74780000
N        3.07530000       3.38020000       0.45590000
N        2.05630000       2.90500000       1.01830000
H       -0.67650000      -1.58220000      -1.63620000
H       -0.52590000       1.82570000       0.85420000
H        0.48290000       0.69480000       1.72660000
H        2.30890000       1.06710000      -1.65240000
