17
Properties=species:S:1:pos:R:3 gdb_32079=T pbc="F F F"
C       -0.37420000       1.48840000       0.12960000
C       -0.09020000       0.01550000       0.03220000
N       -0.02300000      -0.50800000      -1.19690000
C        0.22870000      -1.81410000      -1.29030000
C        0.30660000      -2.41560000      -2.67750000
O        0.57480000      -3.79100000      -2.65990000
N        0.42160000      -2.65710000      -0.27320000
C        0.35370000      -2.13070000       0.95220000
C        0.09770000      -0.78550000       1.16310000
H        0.39630000       2.05450000      -0.40300000
H       -1.32850000       1.71870000      -0.35420000
H       -0.41110000       1.82830000       1.16680000
H       -0.64540000      -2.20700000      -3.19020000
H        1.08160000      -1.87080000      -3.23900000
H        0.64750000      -4.02800000      -1.72250000
H        0.51000000      -2.81230000       1.78520000
H        0.04560000      -0.37270000       2.16320000
