20
Properties=species:S:1:pos:R:3 gdb_9925=T pbc="F F F"
C       -0.22120000       1.00510000      -1.80230000
C       -0.01850000      -0.19770000      -0.90640000
C        1.32400000      -0.62560000      -0.36770000
C        2.61910000       0.09980000      -0.66260000
C        0.26580000      -0.07290000       0.59620000
C        0.43620000       1.29020000       1.25440000
C       -0.38290000      -1.03760000       1.44670000
C       -0.92630000      -1.83270000       2.16930000
H        0.45840000       1.82960000      -1.57680000
H       -0.06080000       0.72890000      -2.85060000
H       -1.24400000       1.38770000      -1.71580000
H       -0.68560000      -1.02050000      -1.14790000
H        1.45160000      -1.70180000      -0.29030000
H        2.49520000       1.18040000      -0.75910000
H        3.35470000      -0.07830000       0.12930000
H        3.05210000      -0.26310000      -1.60160000
H        0.92830000       2.01210000       0.60090000
H       -0.53810000       1.70170000       1.53580000
H        1.03450000       1.20060000       2.16640000
H       -1.40490000      -2.53700000       2.80290000
