17
Properties=species:S:1:pos:R:3 gdb_63879=T pbc="F F F"
C       -0.08340000       1.58740000      -0.11490000
C       -0.00850000       0.07180000      -0.05550000
O       -1.26870000      -0.54500000      -0.24250000
C        1.13720000      -0.63350000      -0.88530000
C        1.67870000      -1.20090000       0.42820000
O        1.96330000      -0.11310000       1.29390000
C        0.60630000      -0.54430000       1.22800000
C       -0.08400000      -1.04480000       2.44130000
O        0.47840000      -1.34050000       3.46660000
H        0.88020000       2.02530000       0.15560000
H       -0.33580000       1.92200000      -1.12870000
H       -0.85010000       1.95990000       0.57130000
H       -1.65030000      -0.21170000      -1.06160000
H        0.71280000      -1.39810000      -1.53910000
H        1.83350000       0.00170000      -1.43870000
H        2.18650000      -2.13800000       0.62610000
H       -1.18070000      -1.14730000       2.31570000
