18
Properties=species:S:1:pos:R:3 gdb_38593=T pbc="F F F"
C       -0.03130000       1.49730000       0.08110000
C        1.51830000       1.39590000       0.03640000
C        1.74650000       0.66980000       1.37340000
O        2.82280000      -0.28760000       1.37150000
C        1.94480000      -1.26770000       0.75790000
C        2.03360000      -1.09250000      -0.75850000
C        1.22480000       0.18670000      -0.91990000
N       -0.04000000      -0.01000000      -0.09440000
C        0.67830000      -0.43950000       1.13980000
H       -0.51110000       1.86250000       0.99450000
H       -0.47480000       1.98070000      -0.79200000
H        2.17630000       2.22610000      -0.22300000
H        1.75670000       1.31220000       2.25650000
H        2.10870000      -2.27270000       1.15040000
H        3.07340000      -1.01680000      -1.08420000
H        1.54060000      -1.90760000      -1.29970000
H        0.98640000       0.48470000      -1.94230000
H        0.03070000      -0.76980000       1.94830000
