19
Properties=species:S:1:pos:R:3 gdb_105648=T pbc="F F F"
C        0.03030000       1.36910000       0.12410000
O       -0.00190000      -0.04170000      -0.02490000
C        0.64010000      -0.55250000      -1.17160000
C        2.19650000      -0.58580000      -1.03120000
C        2.06990000      -1.99170000      -0.39050000
C        0.65420000      -2.11180000      -1.04690000
N       -0.49730000      -2.69340000      -0.41440000
C        0.08500000       0.01690000      -2.40760000
N       -0.32510000       0.46210000      -3.39270000
H        1.05700000       1.75230000       0.19520000
H       -0.47810000       1.87120000      -0.70850000
H       -0.49610000       1.59130000       1.05410000
H        2.68630000      -0.60590000      -2.00690000
H        2.63140000       0.21410000      -0.43020000
H        2.81430000      -2.74150000      -0.66470000
H        1.99770000      -1.93460000       0.69830000
H        0.75980000      -2.53570000      -2.05040000
H       -0.39040000      -3.69700000      -0.31650000
H       -0.63070000      -2.29430000       0.50830000
