13
Properties=species:S:1:pos:R:3 gdb_3383=T pbc="F F F"
O       -0.03890000       0.02250000       0.32980000
C       -0.01520000       1.18470000      -0.00090000
C        1.22840000       1.99020000      -0.06370000
C        1.59120000       2.95150000      -1.20850000
C        0.36150000       3.71880000      -1.68090000
O        0.03910000       4.09820000      -0.31200000
C        1.24630000       3.48960000       0.14540000
H       -0.94640000       1.72670000      -0.26130000
H        2.10050000       1.47450000       0.32810000
H        2.53740000       2.86660000      -1.72400000
H        0.61880000       4.60740000      -2.26690000
H       -0.44980000       3.17240000      -2.17180000
H        1.81210000       3.98880000       0.92320000
