18
Properties=species:S:1:pos:R:3 gdb_113625=T pbc="F F F"
C        0.69090000       1.75730000       0.08050000
C       -0.11770000       0.46110000      -0.05250000
C        0.33600000      -0.35260000      -1.24180000
N        1.52440000      -1.17800000      -1.07220000
C        0.24170000      -1.85800000      -1.32020000
C       -0.33480000      -2.67370000      -0.20250000
O       -0.04790000      -2.53250000       0.96680000
C       -1.32120000      -3.65620000      -0.62990000
C       -2.12790000      -4.47210000      -0.99470000
H        1.75360000       1.53430000       0.21560000
H        0.58850000       2.38960000      -0.80910000
H        0.35510000       2.34030000       0.94300000
H       -0.01000000      -0.14350000       0.85060000
H       -1.18400000       0.69310000      -0.16890000
H        0.20830000       0.14260000      -2.20590000
H        2.08710000      -1.20210000      -1.91840000
H        0.05550000      -2.27060000      -2.30880000
H       -2.84510000      -5.19640000      -1.29660000
