23
Properties=species:S:1:pos:R:3 gdb_113937=T pbc="F F F"
C        0.55290000       0.98720000       0.46280000
O       -0.28210000       0.19840000      -0.35930000
C        0.41010000      -0.43300000      -1.38070000
C        1.13810000      -1.73510000      -1.09320000
C       -0.15120000      -1.71770000      -1.90030000
O       -1.33580000      -2.16530000      -1.33810000
C       -1.71370000      -3.49660000      -1.69420000
C       -0.82780000      -4.55280000      -1.02920000
C       -3.17820000      -3.63550000      -1.29570000
H        1.32910000       0.38220000       0.95350000
H        1.04900000       1.78630000      -0.10960000
H       -0.08410000       1.44160000       1.22520000
H        0.86150000       0.24600000      -2.10760000
H        2.08310000      -1.94880000      -1.58170000
H        1.03890000      -2.10290000      -0.07790000
H       -0.07170000      -1.88800000      -2.97590000
H       -1.62730000      -3.60160000      -2.78940000
H       -1.16000000      -5.55700000      -1.31200000
H        0.21750000      -4.44600000      -1.32950000
H       -0.88490000      -4.46500000       0.06070000
H       -3.78140000      -2.86680000      -1.78550000
H       -3.56390000      -4.61950000      -1.57820000
H       -3.28760000      -3.51730000      -0.21310000
