15
Properties=species:S:1:pos:R:3 gdb_2326=T pbc="F F F"
O       -0.17790000       1.48920000       0.13180000
C       -0.04250000       0.10100000       0.05130000
C       -0.56430000      -0.76910000       1.16690000
C       -1.30130000      -0.69170000      -0.15900000
C       -2.64420000       0.01430000      -0.23570000
C       -3.76260000      -0.87790000       0.25790000
O       -4.55260000      -0.58380000       1.11730000
H        0.42090000       1.80850000       0.81450000
H        0.84840000      -0.23760000      -0.47790000
H       -0.02910000      -1.67640000       1.42440000
H       -1.02340000      -0.25630000       2.00630000
H       -1.20570000      -1.55660000      -0.81000000
H       -2.63840000       0.93920000       0.34300000
H       -2.85930000       0.27290000      -1.28300000
H       -3.80980000      -1.87450000      -0.24300000
