18
Properties=species:S:1:pos:R:3 gdb_24336=T pbc="F F F"
C       -0.04580000       1.49610000       0.07680000
C        1.36430000       2.12200000      -0.01040000
C        2.18370000       1.42800000      -1.05970000
C        3.23190000       1.84190000      -1.83990000
N        3.67000000       0.75450000      -2.56660000
C        2.91670000      -0.35000000      -2.25920000
C        1.97900000       0.03430000      -1.32350000
C        0.91360000      -0.69050000      -0.65530000
C       -0.02650000      -0.01700000       0.02370000
H       -0.54460000       1.83880000       0.98990000
H       -0.65990000       1.86810000      -0.75870000
H        1.28920000       3.19860000      -0.19640000
H        1.85570000       2.00950000       0.96740000
H        3.71100000       2.80320000      -1.94020000
H        4.41590000       0.77410000      -3.23860000
H        3.09440000      -1.29880000      -2.74030000
H        0.88370000      -1.77450000      -0.72230000
H       -0.83850000      -0.54970000       0.50990000
