18
Properties=species:S:1:pos:R:3 gdb_103695=T pbc="F F F"
C       -0.07010000       1.57040000       0.14840000
C       -0.06320000       0.05740000       0.04830000
C       -1.34230000      -0.53860000      -0.50380000
O       -1.46750000      -0.09430000      -1.84760000
C        1.22630000      -0.64740000      -0.29060000
C        0.67700000      -0.72020000       1.12780000
O        1.27820000       0.04410000       2.13100000
C        0.14890000      -1.98480000       1.59920000
N       -0.24490000      -2.99780000       1.99630000
H        0.87130000       1.95220000       0.54380000
H       -0.24170000       1.99210000      -0.84510000
H       -0.87590000       1.91080000       0.80760000
H       -1.30980000      -1.63580000      -0.44940000
H       -2.19350000      -0.20270000       0.10930000
H       -2.31110000      -0.40640000      -2.18790000
H        1.18730000      -1.54110000      -0.90300000
H        2.11890000      -0.04220000      -0.40590000
H        2.08970000      -0.40040000       2.40250000
