20
Properties=species:S:1:pos:R:3 gdb_74275=T pbc="F F F"
C        0.02190000       1.53180000      -0.00240000
C       -0.02730000       0.04180000       0.00560000
C       -1.06240000      -0.79900000      -0.05440000
C       -0.61850000      -2.24820000      -0.01490000
C       -1.17660000      -2.97600000       1.22390000
C       -1.01490000      -2.99530000      -1.30360000
N        0.82580000      -2.07930000       0.07610000
C        1.23500000      -0.76820000       0.09270000
O        2.37630000      -0.35810000       0.16300000
H        0.62370000       1.89140000      -0.84420000
H       -0.97650000       1.97080000      -0.06950000
H        0.51200000       1.90430000       0.90370000
H       -2.11210000      -0.53700000      -0.12360000
H       -2.26920000      -3.02720000       1.18280000
H       -0.79540000      -4.00190000       1.27150000
H       -0.88580000      -2.45450000       2.13920000
H       -0.60940000      -2.48750000      -2.18210000
H       -0.63170000      -4.02140000      -1.28660000
H       -2.10390000      -3.04700000      -1.40130000
H        1.48050000      -2.84220000       0.12440000
