17
Properties=species:S:1:pos:R:3 gdb_71022=T pbc="F F F"
C        0.01610000       1.47250000      -0.16780000
C        0.00830000      -0.00630000       0.03890000
O        0.66920000      -0.85020000      -1.04680000
C        0.18980000      -1.78720000      -0.05760000
C        0.04030000      -3.22310000       0.39960000
C       -0.61350000      -3.02760000       1.55800000
C       -0.80490000      -1.49130000       1.70360000
C        0.54750000      -0.91400000       1.17340000
C       -1.13240000      -1.03490000       0.24490000
H        1.04070000       1.85120000      -0.22980000
H       -0.50750000       1.73880000      -1.09080000
H       -0.48630000       1.96450000       0.67130000
H        0.36880000      -4.13380000      -0.07620000
H       -0.95050000      -3.77200000       2.26530000
H       -1.31970000      -1.11290000       2.58570000
H        1.52400000      -0.87750000       1.65840000
H       -2.05900000      -1.13550000      -0.32200000
