23
Properties=species:S:1:pos:R:3 gdb_77525=T pbc="F F F"
C       -0.14090000       1.53830000       0.09270000
C        0.01870000       0.02520000       0.02520000
C        0.76380000      -0.59190000      -1.21490000
C        0.49800000      -0.13410000      -2.62940000
C        2.09750000      -0.27180000      -0.47070000
C        1.22570000      -0.59390000       0.78390000
O        1.50690000      -0.10930000       2.06130000
C        0.96860000      -2.10410000       0.60930000
C        0.61720000      -2.10320000      -0.91190000
H        0.77450000       2.08230000      -0.15440000
H       -0.92280000       1.87460000      -0.59690000
H       -0.43430000       1.83970000       1.10320000
H       -0.94580000      -0.44560000       0.25440000
H        0.60490000       0.95090000      -2.73030000
H        1.19640000      -0.60330000      -3.33230000
H       -0.51730000      -0.40060000      -2.94720000
H        2.96250000      -0.91110000      -0.67810000
H        2.38850000       0.77700000      -0.52820000
H        2.24160000      -0.61510000       2.42470000
H        1.85580000      -2.70440000       0.84080000
H        0.14840000      -2.45020000       1.24490000
H       -0.39750000      -2.46310000      -1.11050000
H        1.30890000      -2.70820000      -1.50700000
