19
Properties=species:S:1:pos:R:3 gdb_23385=T pbc="F F F"
C       -0.47640000       1.33640000       0.01280000
C        0.03090000      -0.07400000       0.16300000
N        0.42840000      -0.58330000       1.26710000
O        0.32590000       0.33540000       2.32230000
C        0.12870000      -0.91950000      -1.06230000
C       -0.03120000      -2.38010000      -1.15480000
C       -1.04150000      -2.94630000      -0.16090000
C       -2.03960000      -1.90890000      -0.72900000
N       -1.06300000      -1.44170000      -1.78540000
H        0.33100000       2.05510000       0.19250000
H       -0.88110000       1.49880000      -0.98760000
H       -1.24980000       1.54610000       0.75740000
H        0.64790000      -0.17840000       3.07050000
H        0.81940000      -0.49790000      -1.79380000
H        0.63790000      -2.97610000      -1.76860000
H       -1.32910000      -3.97120000      -0.40250000
H       -0.77040000      -2.87890000       0.89340000
H       -2.91120000      -2.34810000      -1.21690000
H       -2.37580000      -1.11790000      -0.05180000
