21
Properties=species:S:1:pos:R:3 gdb_78167=T pbc="F F F"
C       -0.19620000       1.47410000       0.11160000
C        0.07720000      -0.00900000      -0.02830000
C        0.68240000      -0.68080000      -1.21990000
C        1.45050000      -0.67510000       0.09690000
C        2.66870000       0.16810000      -0.09690000
O        3.59440000       0.25970000       0.67240000
C        2.60210000       0.83630000      -1.47950000
C        1.44350000       0.16230000      -2.25630000
C        1.95990000      -0.72220000      -3.39760000
H        0.53120000       2.10110000      -0.40680000
H       -1.18400000       1.71370000      -0.29770000
H       -0.19440000       1.76910000       1.16590000
H       -0.68500000      -0.61310000       0.45950000
H        0.22280000      -1.59730000      -1.57680000
H        1.54290000      -1.53130000       0.75370000
H        2.47560000       1.91650000      -1.35220000
H        3.56860000       0.70060000      -1.97470000
H        0.77580000       0.91940000      -2.68410000
H        2.63010000      -1.50140000      -3.01640000
H        1.13450000      -1.21710000      -3.92010000
H        2.51660000      -0.13080000      -4.13130000
