18
Properties=species:S:1:pos:R:3 gdb_85160=T pbc="F F F"
C       -0.49550000       1.62190000      -0.22780000
C       -0.12190000       0.16410000      -0.09240000
O        1.09750000      -0.15000000      -0.87010000
C        1.77190000      -0.56380000       0.24660000
N        2.95640000      -0.94660000       0.40520000
C        0.58720000      -0.37270000       1.17990000
C        0.77540000       0.47530000       2.43630000
C        1.83350000      -0.02770000       3.39220000
O        0.10000000       1.45420000       2.65090000
H        0.32330000       2.27470000       0.08020000
H       -0.74260000       1.83310000      -1.27290000
H       -1.36120000       1.85050000       0.39720000
H       -0.93230000      -0.48510000      -0.43620000
H        3.47580000      -0.93800000      -0.47380000
H        0.19550000      -1.34510000       1.50040000
H        1.52290000      -0.99490000       3.80620000
H        2.77230000      -0.20500000       2.85770000
H        1.96700000       0.68740000       4.20450000
