19
Properties=species:S:1:pos:R:3 gdb_77990=T pbc="F F F"
C       -0.05980000       1.77250000       0.78850000
C        0.07550000       0.27420000       0.62950000
C        1.19970000      -0.49360000      -0.01290000
N        2.54510000      -0.00520000       0.22230000
C        3.08840000       1.12710000      -0.50180000
C        2.35580000       0.01280000       1.68840000
C        0.95500000      -0.60530000       1.50930000
C        0.45140000      -1.69980000       2.26610000
N        0.04090000      -2.58060000       2.89630000
H       -0.38650000       2.23030000      -0.15100000
H       -0.80890000       2.00470000       1.55260000
H        0.87350000       2.25400000       1.08470000
H       -0.87380000      -0.22490000       0.43850000
H        1.01640000      -1.24100000      -0.77920000
H        2.56410000       2.08190000      -0.33760000
H        4.13830000       1.26320000      -0.22180000
H        3.05910000       0.90700000      -1.57390000
H        3.05720000      -0.64740000       2.20740000
H        2.37520000       1.00100000       2.16590000
