16
Properties=species:S:1:pos:R:3 gdb_68737=T pbc="F F F"
O        0.03720000       1.36270000       0.13390000
C        0.04180000      -0.00030000       0.00440000
C       -0.28310000      -0.83290000       1.19260000
C       -1.18160000      -1.00680000      -0.02950000
C       -2.56940000      -0.69440000      -0.01230000
N       -3.69720000      -0.42850000      -0.01910000
C       -0.46480000      -1.78230000      -1.11070000
C       -0.19250000      -0.91650000      -2.30630000
C        0.70400000      -0.78650000      -1.09540000
H       -0.11590000       1.75580000      -0.73340000
H        0.35340000      -1.65980000       1.49520000
H       -0.73600000      -0.27950000       2.00910000
H       -0.38260000      -2.86200000      -1.13990000
H        0.25430000      -1.41790000      -3.15910000
H       -0.88880000      -0.12540000      -2.57110000
H        1.76190000      -1.01820000      -1.13790000
