20
Properties=species:S:1:pos:R:3 gdb_120235=T pbc="F F F"
C       -0.00550000       1.35690000       0.20250000
C        0.18300000      -0.15640000       0.06770000
C        0.67090000      -0.55160000      -1.33380000
N        0.89200000      -1.97050000      -1.53530000
C        1.70340000      -2.92300000      -0.77140000
C        0.88960000      -3.62750000       0.27380000
C        0.76700000      -4.03640000      -1.19390000
C       -0.02360000      -2.94770000      -1.92490000
O       -1.03610000      -2.88140000      -2.56800000
H        0.93340000       1.89170000       0.02080000
H       -0.74330000       1.73010000      -0.51600000
H       -0.35190000       1.62530000       1.20480000
H        0.90370000      -0.50830000       0.81580000
H       -0.76310000      -0.67140000       0.27370000
H       -0.06850000      -0.25590000      -2.08600000
H        1.59750000      -0.01140000      -1.56790000
H        2.78440000      -2.90250000      -0.81950000
H        1.41660000      -4.34300000       0.89980000
H        0.07090000      -3.11180000       0.76560000
H        1.00100000      -5.02890000      -1.54960000
