16
Properties=species:S:1:pos:R:3 gdb_54366=T pbc="F F F"
C       -0.10690000       1.45450000      -0.22460000
C        0.02540000      -0.02070000       0.09550000
O        1.07720000      -0.54920000       0.39110000
C       -1.21190000      -0.82230000       0.02490000
C       -1.55080000      -2.26800000       0.43970000
C       -2.74290000      -2.25330000      -0.52800000
C       -2.89620000      -1.76310000       0.88860000
N       -2.57720000      -0.31800000       0.48900000
C       -2.39330000      -0.79540000      -0.90830000
H        0.81590000       1.96790000       0.04750000
H       -0.28540000       1.58880000      -1.29820000
H       -0.96190000       1.88590000       0.30420000
H       -0.94480000      -3.09330000       0.78030000
H       -3.21060000      -3.06950000      -1.05790000
H       -3.55430000      -2.04190000       1.70070000
H       -2.58920000      -0.16950000      -1.77120000
