18
Properties=species:S:1:pos:R:3 gdb_78931=T pbc="F F F"
C       -0.07370000       1.45130000       0.04480000
C       -0.09430000      -0.04510000      -0.03260000
C       -0.15530000      -0.99560000       1.19760000
C        0.98360000      -1.05460000       0.22180000
N        0.22360000      -2.09040000      -0.59900000
C       -0.80700000      -2.22270000       0.54590000
C       -1.91040000      -1.72220000      -0.40770000
O       -3.02460000      -1.03030000       0.07870000
C       -0.73650000      -0.97730000      -1.07640000
H        0.53110000       1.79350000       0.89130000
H        0.35290000       1.88930000      -0.86450000
H       -1.08120000       1.86590000       0.16860000
H       -0.17570000      -0.63390000       2.21790000
H        2.05990000      -0.99370000       0.32690000
H       -0.86750000      -3.16450000       1.09100000
H       -2.27600000      -2.53110000      -1.04570000
H       -2.70270000      -0.35410000       0.68570000
H       -0.72750000      -0.69460000      -2.12960000
