19
Properties=species:S:1:pos:R:3 gdb_90192=T pbc="F F F"
O       -0.02170000       1.42710000       0.03420000
C       -0.00270000       0.00910000      -0.01240000
C        0.55230000      -0.65960000       1.31500000
C       -0.73300000      -1.35050000       1.71490000
C       -1.55600000      -2.24480000       2.66910000
C       -2.54360000      -1.86450000       1.51770000
C       -1.95730000      -0.42410000       1.40840000
C       -1.46690000      -0.49360000      -0.05290000
C       -1.41920000      -1.95290000       0.44260000
H        0.88770000       1.74100000       0.03100000
H        0.56380000      -0.33810000      -0.88950000
H        1.38440000      -1.34470000       1.12350000
H        0.88250000       0.11400000       2.01500000
H       -1.26250000      -3.29740000       2.73970000
H       -1.77870000      -1.84080000       3.66220000
H       -3.58660000      -2.16520000       1.41230000
H       -2.23900000       0.44980000       1.99660000
H       -2.06200000      -0.16140000      -0.90530000
H       -1.07840000      -2.84930000      -0.08030000
