17
Properties=species:S:1:pos:R:3 gdb_81440=T pbc="F F F"
O        0.09060000       1.44600000      -0.00850000
C        0.13430000       0.05070000      -0.07020000
C        0.10560000      -0.65540000       1.31220000
O       -1.34450000      -0.30270000       1.35020000
C       -1.26220000      -0.63200000      -0.09670000
C       -1.02090000      -2.14820000      -0.04370000
O       -2.11100000      -3.00300000      -0.07700000
C        0.33020000      -2.68960000      -0.37210000
C        0.06370000      -2.15730000       1.03170000
H       -0.58400000       1.65520000       0.65230000
H        0.89230000      -0.21020000      -0.80690000
H        0.66050000      -0.28230000       2.17280000
H       -2.09980000      -0.25780000      -0.68550000
H       -2.69760000      -2.74800000       0.64570000
H        0.36440000      -3.77320000      -0.42680000
H        1.00470000      -2.19880000      -1.06300000
H        0.03790000      -2.85510000       1.85970000
