15
Properties=species:S:1:pos:R:3 gdb_5558=T pbc="F F F"
O        0.14420000       1.32390000       0.38080000
C       -0.02650000       0.12390000      -0.38180000
C       -1.35660000      -0.50740000      -0.16830000
C       -1.72080000      -1.79800000       0.15880000
O       -0.81880000      -2.80880000       0.34490000
C       -3.13890000      -1.86050000       0.24180000
C       -3.60730000      -0.59230000      -0.03310000
N       -2.53480000       0.20820000      -0.29090000
H        0.00880000       1.08720000       1.30500000
H        0.11210000       0.44450000      -1.42210000
H        0.75250000      -0.61890000      -0.16410000
H       -1.29940000      -3.60280000       0.59430000
H       -3.73920000      -2.72890000       0.46950000
H       -4.61400000      -0.20760000      -0.05770000
H       -2.56050000       1.20240000      -0.43630000
