23
Properties=species:S:1:pos:R:3 gdb_114427=T pbc="F F F"
C       -0.08270000       1.61290000       0.01070000
C       -0.08580000       0.08050000      -0.02280000
C        0.73020000      -0.50770000      -1.17720000
C        2.25920000      -0.21400000      -1.13370000
C        2.89230000      -1.45650000      -1.75900000
C        2.69060000      -2.80360000      -1.07910000
C        1.47300000      -2.76170000      -0.15700000
C        0.68240000      -2.04220000      -1.30470000
C        1.84270000      -2.40290000      -2.27410000
H        0.93010000       2.00880000       0.13890000
H       -0.48440000       2.02900000      -0.92030000
H       -0.69370000       1.99350000       0.83520000
H        0.29740000      -0.30490000       0.93090000
H       -1.12160000      -0.27570000      -0.10030000
H        0.33440000      -0.09600000      -2.11760000
H        2.51740000       0.68850000      -1.69580000
H        2.60390000      -0.05510000      -0.10420000
H        3.81770000      -1.35980000      -2.31650000
H        3.49750000      -3.52660000      -1.03480000
H        1.07850000      -3.76450000       0.02670000
H        1.56740000      -2.24270000       0.80380000
H       -0.31070000      -2.44170000      -1.51480000
H        1.78300000      -2.81380000      -3.27320000
