13
Properties=species:S:1:pos:R:3 gdb_129056=T pbc="F F F"
N       -0.05130000       1.24040000      -0.42870000
C        0.03220000       0.01520000      -0.07540000
C        1.25170000      -0.70040000       0.32600000
N        1.29490000      -1.93470000       0.67490000
C        0.07750000      -2.60690000       0.65820000
N       -1.06910000      -2.12090000       0.33270000
N       -1.11120000      -0.81400000      -0.03610000
C       -2.39560000      -0.30480000      -0.39090000
O       -3.39140000      -0.96650000      -0.37330000
H        0.86640000       1.68270000      -0.39830000
H        2.17650000      -0.12200000       0.31990000
H        0.09670000      -3.64990000       0.95020000
H       -2.32390000       0.75290000      -0.67150000
