18
Properties=species:S:1:pos:R:3 gdb_39077=T pbc="F F F"
C        0.00490000       1.60220000       0.16820000
C        1.27050000       0.84620000      -0.09880000
O        2.21970000       0.92400000       0.93960000
C        3.07320000      -0.08780000       1.27870000
N        3.00890000      -1.34440000       1.21710000
C        1.83120000      -2.07140000       0.74040000
C        0.58810000      -1.76980000       1.55230000
C       -0.25000000      -0.78200000       1.24530000
C       -0.02890000       0.09230000       0.06040000
H       -0.07530000       2.02560000       1.16380000
H       -0.43370000       2.19920000      -0.62300000
H        1.72780000       0.89620000      -1.08330000
H        3.95570000       0.36970000       1.72750000
H        1.64490000      -1.86670000      -0.32030000
H        2.06600000      -3.13740000       0.81690000
H        0.41310000      -2.38270000       2.43230000
H       -1.13210000      -0.59640000       1.85350000
H       -0.43710000      -0.28820000      -0.87560000
