18
Properties=species:S:1:pos:R:3 gdb_98118=T pbc="F F F"
C       -0.15620000       1.46520000       0.35260000
C       -0.08730000      -0.05350000       0.21910000
C        0.56760000      -0.50930000      -1.06170000
O        0.99510000       0.25420000      -1.90520000
C        0.68890000      -2.00970000      -1.28950000
N        0.24730000      -2.82360000      -0.41660000
N        1.30870000      -2.27830000      -2.50490000
C        1.58860000      -3.50870000      -3.04380000
N        1.29670000      -4.60640000      -2.46290000
H        0.84280000       1.90900000       0.33310000
H       -0.72450000       1.90840000      -0.46950000
H       -0.63820000       1.74300000       1.29370000
H        0.45700000      -0.51790000       1.05020000
H       -1.07970000      -0.51800000       0.26380000
H        0.40540000      -3.78800000      -0.72080000
H        1.56620000      -1.44310000      -3.01510000
H        2.08480000      -3.42380000      -4.01740000
H        1.58850000      -5.39910000      -3.02870000
