14
Properties=species:S:1:pos:R:3 gdb_132868=T pbc="F F F"
N        0.01160000       1.38170000       0.13940000
C       -0.06720000       0.01720000       0.05210000
C       -1.21690000      -0.72890000       0.03010000
C       -1.13810000      -2.14350000      -0.00620000
F       -2.27980000      -2.84240000      -0.02070000
C        0.05210000      -2.78680000      -0.02380000
N        1.19820000      -2.01720000      -0.01160000
C        1.24960000      -0.63990000       0.01560000
O        2.30970000      -0.01850000       0.00010000
H        0.93450000       1.73980000      -0.06750000
H       -0.76880000       1.93280000      -0.17660000
H       -2.19670000      -0.26360000       0.04690000
H        0.16130000      -3.86040000      -0.04810000
H        2.10180000      -2.46720000      -0.04150000
