18
Properties=species:S:1:pos:R:3 gdb_51694=T pbc="F F F"
N        0.05290000       1.26340000       0.00850000
C        0.04750000       0.00290000       0.04700000
O       -1.12140000      -0.66810000       0.01180000
C       -1.06870000      -2.08860000      -0.07900000
C       -2.29780000      -2.69350000       0.62100000
C       -2.42630000      -4.09760000       0.01420000
C       -1.83630000      -3.97880000      -1.39830000
O       -1.89220000      -4.81710000      -2.25770000
C       -1.15500000      -2.61060000      -1.51930000
H        1.00820000       1.60910000       0.06910000
H        0.92640000      -0.65330000       0.12360000
H       -0.14750000      -2.44890000       0.40020000
H       -2.20020000      -2.68590000       1.70840000
H       -3.16660000      -2.07910000       0.36220000
H       -1.81990000      -4.83350000       0.55850000
H       -3.44460000      -4.49150000      -0.01890000
H       -1.81670000      -1.95090000      -2.09570000
H       -0.20560000      -2.67680000      -2.05490000
