16
Properties=species:S:1:pos:R:3 gdb_84411=T pbc="F F F"
C       -0.06830000       1.55740000      -0.00010000
C        0.04340000       0.03080000      -0.01220000
N        0.80760000      -0.47040000      -1.16370000
C        1.76870000      -1.16440000      -0.69920000
N        1.82950000      -1.25820000       0.70180000
C        2.77300000      -1.93760000       1.46420000
N        3.71540000      -2.58290000       0.91310000
C        0.75830000      -0.51290000       1.23030000
O        0.51610000      -0.36410000       2.40100000
H        0.92400000       2.01740000      -0.00210000
H       -0.60750000       1.89830000      -0.88630000
H       -0.60210000       1.88150000       0.89680000
H       -0.96470000      -0.40230000      -0.04580000
H        2.52430000      -1.67530000      -1.28230000
H        2.57150000      -1.82510000       2.53280000
H        4.30880000      -3.01700000       1.61750000
