20
Properties=species:S:1:pos:R:3 gdb_121816=T pbc="F F F"
C        0.09500000       1.36470000      -0.12530000
O        0.03080000      -0.04050000      -0.05950000
C       -1.28740000      -0.52210000       0.07970000
C       -1.20640000      -2.04450000       0.15420000
C       -2.57930000      -2.74910000       0.07040000
C       -3.53480000      -2.35620000       1.20490000
O       -3.25900000      -2.42800000      -1.13960000
C       -2.34450000      -4.21530000       0.12180000
N       -2.14840000      -5.35410000       0.13480000
H        1.14650000       1.63820000      -0.23930000
H       -0.47140000       1.75980000      -0.98350000
H       -0.29790000       1.83540000       0.78980000
H       -1.75160000      -0.10410000       0.98800000
H       -1.91030000      -0.21690000      -0.77570000
H       -0.58150000      -2.39240000      -0.67670000
H       -0.69630000      -2.34720000       1.07440000
H       -3.78000000      -1.29520000       1.12350000
H       -4.45970000      -2.93090000       1.12710000
H       -3.07830000      -2.54730000       2.17870000
H       -2.71310000      -2.71370000      -1.88150000
