21
Properties=species:S:1:pos:R:3 gdb_58499=T pbc="F F F"
C        0.04860000       1.50060000      -0.28660000
C        0.06850000       0.01990000       0.12750000
C        0.72860000      -0.16800000       1.50020000
C       -1.34450000      -0.55550000       0.11460000
O       -2.22750000       0.05810000       1.01920000
C       -1.94260000      -1.11260000      -1.13460000
C       -1.59990000      -2.05550000       0.02530000
C       -0.50700000      -3.03910000      -0.14020000
O       -0.47270000      -4.11600000       0.40370000
H        1.06610000       1.89760000      -0.34770000
H       -0.42560000       1.63990000      -1.26420000
H       -0.49140000       2.10800000       0.44830000
H        0.65440000      -0.52510000      -0.62260000
H        0.12710000       0.30930000       2.27920000
H        0.82550000      -1.22760000       1.75630000
H        1.72850000       0.27670000       1.51570000
H       -2.49070000       0.90660000       0.64640000
H       -2.99780000      -0.94800000      -1.31970000
H       -1.32090000      -1.17810000      -2.02270000
H       -2.42740000      -2.40450000       0.63210000
H        0.30540000      -2.72810000      -0.83760000
