19
Properties=species:S:1:pos:R:3 gdb_79062=T pbc="F F F"
C        0.03550000       1.58640000       0.05500000
C       -0.00790000       0.07290000       0.07590000
C       -1.35930000      -0.59250000      -0.07620000
C       -1.30300000      -1.83900000       0.40830000
C        0.03950000      -2.07340000       1.01580000
C        1.29890000      -1.68400000       0.20120000
C        0.69740000      -0.73580000       1.21780000
C        0.98140000      -0.70520000      -0.91470000
O        0.54360000      -1.14810000      -2.16890000
H        1.05680000       1.95590000       0.19620000
H       -0.32770000       1.97190000      -0.90410000
H       -0.58920000       2.01530000       0.84640000
H       -2.17900000      -0.15060000      -0.63040000
H       -2.08230000      -2.59000000       0.36150000
H        0.19700000      -2.86730000       1.73660000
H        2.19240000      -2.29250000       0.27730000
H        1.10840000      -0.35250000       2.14380000
H        1.84690000      -0.06310000      -1.09990000
H       -0.23740000      -1.69350000      -2.01510000
