16
Properties=species:S:1:pos:R:3 gdb_25025=T pbc="F F F"
O        0.01900000      -0.01930000       0.12800000
C       -0.01490000       1.17890000       0.06690000
N       -1.07770000       2.04110000       0.24300000
C       -0.67000000       3.37080000       0.07850000
C        0.64160000       3.30340000      -0.19800000
O        1.06650000       1.98810000      -0.21260000
C       -1.56200000       4.52930000       0.20160000
C       -3.00680000       4.46780000      -0.25600000
C       -2.69310000       4.55340000       1.21180000
H       -1.99910000       1.70490000       0.45880000
H        1.38090000       4.05760000      -0.40020000
H       -1.04740000       5.46970000       0.03680000
H       -3.41300000       5.34160000      -0.75220000
H       -3.37170000       3.52640000      -0.65240000
H       -2.84240000       3.67080000       1.82450000
H       -2.88250000       5.48630000       1.73010000
