27
Properties=species:S:1:pos:R:3 gdb_85853=T pbc="F F F"
C       -1.19370000       0.41140000      -1.36120000
C        0.03650000      -0.33330000      -0.86080000
C        1.44480000       0.21740000      -1.19690000
C        1.95040000      -0.26040000       0.19780000
C        2.61090000      -1.64180000       0.09670000
C        2.89230000       0.68490000       0.94390000
C        0.42710000      -0.32320000       0.66050000
C       -0.02950000       0.95420000       1.37650000
C       -0.02620000      -1.53430000       1.47650000
H       -1.17350000       1.46950000      -1.08170000
H       -1.25420000       0.36200000      -2.45440000
H       -2.11850000      -0.02160000      -0.96280000
H       -0.03150000      -1.37650000      -1.19090000
H        1.95260000      -0.19180000      -2.07570000
H        1.44400000       1.30950000      -1.27940000
H        3.58430000      -1.55350000      -0.39950000
H        2.78320000      -2.08010000       1.08580000
H        2.01360000      -2.35130000      -0.48340000
H        2.50220000       1.70390000       1.00540000
H        3.08400000       0.33690000       1.96630000
H        3.86050000       0.73500000       0.43170000
H        0.23080000       1.86550000       0.83080000
H       -1.11720000       0.95100000       1.50780000
H        0.42050000       1.02630000       2.37250000
H        0.40970000      -1.52700000       2.48300000
H       -1.11630000      -1.52650000       1.59690000
H        0.24410000      -2.48120000       1.00220000
