14
Properties=species:S:1:pos:R:3 gdb_14678=T pbc="F F F"
O        0.14320000       0.78000000       0.70760000
C       -0.28270000      -0.11460000      -0.30940000
C       -1.68380000      -0.45830000      -0.10360000
C       -2.84000000      -0.75280000       0.05220000
C       -4.23570000      -1.11390000       0.24600000
O       -4.39850000      -2.39080000       0.89350000
C       -4.34580000      -3.47920000       0.09830000
O       -4.42940000      -4.59020000       0.52440000
H        1.07620000       0.96410000       0.55760000
H       -0.16880000       0.33020000      -1.31150000
H        0.30920000      -1.04430000      -0.30510000
H       -4.73330000      -0.39680000       0.90380000
H       -4.77330000      -1.11230000      -0.71140000
H       -4.23070000      -3.22590000      -0.97390000
