17
Properties=species:S:1:pos:R:3 gdb_13491=T pbc="F F F"
C       -0.06180000       1.59430000       0.04900000
C       -0.02940000       0.06680000      -0.01080000
O        0.51880000      -0.40580000      -1.23540000
C        0.72190000      -0.53550000       1.18450000
C        0.93620000      -2.06420000       1.21200000
O        2.38910000      -1.86430000       1.19330000
C        2.23780000      -0.50380000       1.09100000
N        3.08880000       0.40380000       0.91280000
H        0.95600000       1.99610000       0.09020000
H       -0.56530000       1.98940000      -0.83730000
H       -0.59800000       1.94260000       0.93780000
H       -1.05520000      -0.32190000       0.00150000
H        1.38480000       0.00840000      -1.33830000
H        0.34460000      -0.12770000       2.12600000
H        0.62680000      -2.59620000       2.11370000
H        0.61470000      -2.58700000       0.30940000
H        4.03500000       0.02190000       0.85810000
