20
Properties=species:S:1:pos:R:3 gdb_114019=T pbc="F F F"
O       -0.43880000       1.47740000      -0.65610000
C       -0.00940000       0.22760000      -0.13160000
C       -1.24280000      -0.54950000       0.25130000
C       -1.99400000      -1.36240000      -0.77270000
C       -1.27520000      -2.05600000       0.36470000
C       -0.07220000      -2.93750000       0.10440000
N       -0.47860000      -4.28880000      -0.25800000
C       -0.01300000      -5.40300000       0.36550000
O        0.80750000      -5.41850000       1.25910000
H        0.34050000       2.02100000      -0.80610000
H        0.58350000      -0.32700000      -0.87500000
H        0.63050000       0.37070000       0.75390000
H       -1.85370000      -0.02040000       0.97730000
H       -3.07770000      -1.33320000      -0.77410000
H       -1.54930000      -1.43090000      -1.76180000
H       -1.90910000      -2.44010000       1.15970000
H        0.55650000      -2.51410000      -0.68830000
H        0.55100000      -3.04130000       0.99630000
H       -1.17730000      -4.39840000      -0.97620000
H       -0.47730000      -6.32290000      -0.04330000
