18
Properties=species:S:1:pos:R:3 gdb_106251=T pbc="F F F"
C       -0.06660000       1.50460000      -0.15710000
C       -0.05540000       0.00560000       0.17410000
C       -1.39600000      -0.62930000      -0.00460000
O       -2.46960000      -0.18590000       0.89210000
C       -2.85540000      -1.52260000       1.09550000
N       -3.67820000      -2.00020000       1.90850000
C       -1.92070000      -2.07100000       0.08170000
C       -2.05420000      -1.21270000      -1.19790000
O       -3.24860000      -0.75560000      -1.72360000
H        0.92350000       1.94150000      -0.00020000
H       -0.35350000       1.67650000      -1.19920000
H       -0.77790000       2.03590000       0.48150000
H        0.65710000      -0.52150000      -0.47120000
H        0.27620000      -0.15020000       1.20770000
H       -4.11120000      -1.26850000       2.47410000
H       -1.42020000      -3.02820000       0.11130000
H       -1.38420000      -1.54890000      -1.98470000
H       -3.65600000      -0.19030000      -1.05420000
