21
Properties=species:S:1:pos:R:3 gdb_64442=T pbc="F F F"
C        0.07990000       1.54750000      -0.03430000
C        0.01400000       0.01480000      -0.01040000
C       -1.46800000      -0.43060000       0.07760000
C        0.68900000      -0.58000000      -1.27140000
C        1.01020000      -2.06570000      -1.13350000
O        1.85780000      -2.29110000      -0.01860000
C        1.23530000      -1.95510000       1.20430000
C        0.70240000      -0.51950000       1.25740000
O        0.77280000       0.12240000       2.27940000
H        1.11600000       1.89650000      -0.08200000
H       -0.45120000       1.93510000      -0.91010000
H       -0.37100000       1.96970000       0.86590000
H       -2.01730000      -0.04910000      -0.78980000
H       -1.58290000      -1.51820000       0.09330000
H       -1.93560000      -0.02980000       0.98140000
H        0.04750000      -0.41070000      -2.14550000
H        1.63080000      -0.05020000      -1.45680000
H        0.09230000      -2.67040000      -1.04290000
H        1.55770000      -2.42650000      -2.00880000
H        0.39120000      -2.63800000       1.41670000
H        1.97380000      -2.07730000       1.99900000
