18
Properties=species:S:1:pos:R:3 gdb_126343=T pbc="F F F"
C       -0.26700000       1.51950000       0.13310000
C        0.07340000       0.02560000      -0.00240000
C        0.78400000      -0.52710000       1.19430000
C        2.05780000      -0.96650000       1.34250000
O        2.29980000      -1.37820000       2.59880000
N        1.13580000      -1.21430000       3.35590000
C        0.26060000      -0.71510000       2.51520000
O       -0.99760000      -0.41470000       2.85450000
C       -1.35410000      -0.67670000       4.21470000
H        0.64130000       2.11940000       0.24590000
H       -0.80510000       1.87600000      -0.75050000
H       -0.89730000       1.69300000       1.00980000
H       -0.85350000      -0.53850000      -0.16250000
H        0.69150000      -0.13630000      -0.89210000
H        2.88740000      -1.04830000       0.65600000
H       -0.72820000      -0.09370000       4.89720000
H       -2.39940000      -0.38230000       4.31110000
H       -1.23290000      -1.73900000       4.44740000
