15
Properties=species:S:1:pos:R:3 gdb_12299=T pbc="F F F"
N       -0.02340000       1.20450000       0.47610000
C        0.00600000       0.03830000      -0.01420000
O        1.18290000      -0.57280000      -0.33300000
C        1.19720000      -1.80370000      -1.06910000
C        0.13410000      -2.77100000      -0.57830000
C       -1.24080000      -2.13070000      -0.77410000
C       -1.31390000      -0.72570000      -0.19490000
O       -2.35740000      -0.21140000       0.11140000
H        0.92830000       1.57320000       0.54930000
H        1.05680000      -1.58620000      -2.13770000
H        2.20660000      -2.19900000      -0.93550000
H        0.20970000      -3.71390000      -1.12950000
H        0.31010000      -2.99650000       0.47990000
H       -1.45150000      -2.03590000      -1.84950000
H       -2.05880000      -2.71570000      -0.34630000
