18
Properties=species:S:1:pos:R:3 gdb_48846=T pbc="F F F"
O       -0.03680000      -0.02450000       0.28680000
C        0.08820000       1.07850000      -0.18150000
C        1.32330000       1.90180000      -0.08380000
C        1.03070000       3.40850000       0.15340000
C        1.55270000       2.94240000      -1.16810000
O        2.86250000       3.27560000      -1.51300000
C        3.81830000       2.24900000      -1.25830000
C        3.75810000       1.81070000       0.19770000
N        2.45560000       1.20870000       0.44000000
H       -0.75600000       1.59110000      -0.69980000
H       -0.00290000       3.72690000       0.23490000
H        1.73210000       3.93770000       0.78760000
H        0.87700000       2.93780000      -2.02210000
H        3.64140000       1.38320000      -1.91260000
H        4.79090000       2.68450000      -1.49890000
H        4.53180000       1.05890000       0.38990000
H        3.97840000       2.68520000       0.83570000
H        2.31160000       0.92210000       1.39940000
