18
Properties=species:S:1:pos:R:3 gdb_65705=T pbc="F F F"
C        0.01320000       1.52320000      -0.34710000
C        0.00300000       0.04730000       0.00550000
C        1.25220000      -0.76690000      -0.05730000
C        0.63690000      -0.46560000       1.30530000
C        1.35580000       0.42710000       2.24460000
O        1.35040000       0.28810000       3.44220000
N       -1.19970000      -0.64800000      -0.37810000
C       -2.41760000      -0.39930000       0.18580000
O       -2.61530000       0.36910000       1.09990000
H        0.96330000       1.99560000      -0.08800000
H       -0.14230000       1.64820000      -1.42390000
H       -0.79050000       2.03830000       0.18370000
H        1.20040000      -1.79470000      -0.39960000
H        2.17120000      -0.25010000      -0.31510000
H        0.10380000      -1.27170000       1.79490000
H        1.94260000       1.24540000       1.76780000
H       -1.16720000      -1.24780000      -1.18830000
H       -3.21850000      -0.99950000      -0.29130000
