21
Properties=species:S:1:pos:R:3 gdb_117796=T pbc="F F F"
C       -0.16620000       1.34150000      -0.12560000
O       -0.21900000      -0.06660000      -0.20120000
C        0.67600000      -0.60250000      -1.16160000
C        0.65770000      -2.14320000      -1.04850000
C        1.37740000      -2.60080000       0.23870000
C       -0.81980000      -2.64550000      -0.99400000
O       -1.67870000      -1.98650000      -1.89880000
C        1.33860000      -2.68220000      -2.22680000
C        1.90930000      -3.12140000      -3.18950000
H        0.83290000       1.69110000       0.17450000
H       -0.42020000       1.81160000      -1.08800000
H       -0.89350000       1.65590000       0.62660000
H        0.37120000      -0.30240000      -2.17340000
H        1.69700000      -0.22900000      -0.99010000
H        0.94990000      -2.08330000       1.10190000
H        1.26460000      -3.67930000       0.38410000
H        2.44650000      -2.37840000       0.18710000
H       -0.83900000      -3.70830000      -1.25070000
H       -1.17460000      -2.53800000       0.03920000
H       -1.82770000      -1.10940000      -1.52730000
H        2.40160000      -3.51500000      -4.04410000
