21
Properties=species:S:1:pos:R:3 gdb_111872=T pbc="F F F"
C       -0.04310000       1.52500000       0.27480000
C       -0.03750000       0.11210000      -0.32040000
C       -1.37790000      -0.57840000      -0.16440000
C       -1.54100000      -2.08670000      -0.12240000
C       -0.37030000      -3.05470000      -0.10950000
O        0.54140000      -2.81210000       0.96150000
C       -0.13530000      -2.57080000       2.16310000
O       -0.81410000      -1.33890000       2.14870000
C       -1.77220000      -1.26060000       1.12460000
H        0.91900000       2.02290000       0.11800000
H       -0.81950000       2.14920000      -0.18240000
H       -0.23390000       1.48600000       1.35150000
H        0.21340000       0.16010000      -1.38800000
H        0.74230000      -0.48550000       0.15720000
H       -2.19900000      -0.05980000      -0.65620000
H       -2.42450000      -2.49020000      -0.60850000
H       -0.76290000      -4.08070000      -0.02370000
H        0.22270000      -2.99710000      -1.02730000
H       -0.84260000      -3.39410000       2.37130000
H        0.61630000      -2.50410000       2.95160000
H       -2.78160000      -1.13290000       1.50860000
