20
Properties=species:S:1:pos:R:3 gdb_53570=T pbc="F F F"
C       -0.07030000       1.24750000      -0.58960000
C       -0.04600000      -0.14130000      -0.15340000
C       -0.02850000      -1.28690000       0.21510000
C       -0.00200000      -2.68270000       0.64130000
N       -1.26270000      -3.36090000       0.32270000
C       -1.60540000      -3.78200000      -1.01520000
C       -0.39900000      -4.31020000      -1.81600000
C       -0.14030000      -5.35720000      -0.68720000
C       -1.34500000      -4.78690000       0.08780000
H        0.66580000       1.43370000      -1.37950000
H       -1.05540000       1.51970000      -0.98450000
H        0.15230000       1.92930000       0.23880000
H        0.88320000      -3.17180000       0.20630000
H        0.12190000      -2.73970000       1.73010000
H       -2.54150000      -3.43100000      -1.43570000
H       -0.69660000      -4.78160000      -2.75480000
H        0.39200000      -3.58480000      -2.02780000
H       -0.32570000      -6.37840000      -1.02720000
H        0.82990000      -5.33610000      -0.18100000
H       -2.03910000      -5.36320000       0.69080000
