17
Properties=species:S:1:pos:R:3 gdb_99837=T pbc="F F F"
N       -0.17460000       1.47720000       0.14730000
C       -0.02100000       0.00950000       0.00120000
C       -1.44180000      -0.60700000      -0.02600000
N       -2.14700000      -0.28130000       1.22030000
H       -3.06760000      -0.70390000       1.24800000
H       -0.80670000      -0.74410000       2.14210000
H       -2.24020000       0.72780000       1.29520000
C        0.67040000      -0.37430000      -1.23390000
C        1.16710000      -0.66480000      -2.28910000
C        0.84190000      -0.43340000       1.23760000
O        2.03910000      -0.32660000       1.20770000
O        0.17570000      -0.87300000       2.29690000
H        0.74040000       1.87570000       0.34400000
H       -0.46050000       1.86260000      -0.75020000
H       -1.95380000      -0.24020000      -0.92690000
H       -1.36140000      -1.69430000      -0.11290000
H        1.64150000      -0.92450000      -3.20340000
