16
Properties=species:S:1:pos:R:3 gdb_77404=T pbc="F F F"
O        0.20670000       1.48500000       0.08960000
C        0.10830000       0.08280000      -0.01330000
C        0.03730000      -0.62080000       1.35350000
O        1.00680000      -0.73550000       2.32040000
C       -1.49840000      -0.28540000       1.53850000
N       -1.92230000      -1.70710000       1.76530000
C       -0.78470000      -1.81920000       0.79330000
C       -1.28600000      -0.55030000       0.00770000
O       -2.20460000      -0.47690000      -1.00620000
H       -0.03890000       1.86950000      -0.75800000
H        0.81750000      -0.33390000      -0.74250000
H        1.29990000       0.15280000       2.55520000
H       -1.96370000       0.57180000       2.02260000
H       -1.62370000      -2.02190000       2.69170000
H       -0.41530000      -2.76340000       0.39320000
H       -3.00020000      -0.93680000      -0.70850000
