17
Properties=species:S:1:pos:R:3 gdb_62106=T pbc="F F F"
O       -1.04810000       0.48170000       0.30730000
C        0.06670000      -0.34240000      -0.01600000
C       -0.37760000      -1.31810000      -1.09800000
N       -0.40520000      -0.68580000      -2.41170000
C        0.88000000      -0.25790000      -2.81690000
N        0.84660000       0.52230000      -3.99780000
H        0.32950000       1.38370000      -3.84580000
H        1.78800000       0.78170000      -4.27060000
C        1.20410000       0.58720000      -0.47210000
O        1.61220000       0.54630000      -1.74230000
O        1.67430000       1.37990000       0.30930000
H       -0.70010000       1.21030000       0.83740000
H        0.42710000      -0.88000000       0.87330000
H        0.31210000      -2.16910000      -1.14080000
H       -1.37050000      -1.70430000      -0.85500000
H       -1.07490000       0.07800000      -2.42570000
H        1.53640000      -1.12160000      -2.95740000
