17
Properties=species:S:1:pos:R:3 gdb_26597=T pbc="F F F"
C       -0.01650000       1.52640000      -0.00280000
C        0.01860000       0.02170000       0.01600000
C       -0.01110000      -0.68200000      -1.27230000
O       -0.05320000      -0.09130000      -2.35200000
C       -0.01010000      -2.14420000      -1.17900000
C        0.03770000      -2.77270000       0.01220000
N        0.06380000      -2.06040000       1.18560000
C        0.06530000      -0.68370000       1.18440000
N        0.16980000      -0.11580000       2.45650000
H       -0.45870000      -0.51880000       3.14140000
H        0.06860000       0.88900000       2.44020000
H        0.92730000       1.97520000       0.33310000
H       -0.18770000       1.84320000      -1.03350000
H       -0.82020000       1.93530000       0.62410000
H       -0.04640000      -2.70940000      -2.10140000
H        0.05170000      -3.85000000       0.12600000
H        0.26570000      -2.53510000       2.05020000
