20
Properties=species:S:1:pos:R:3 gdb_10180=T pbc="F F F"
C        0.07200000       1.63100000       0.02890000
C       -0.02120000       0.10250000       0.00820000
C        0.63320000      -0.50500000      -1.23870000
C        0.66320000      -2.05090000      -1.25430000
C       -0.74880000      -2.68070000      -1.34380000
O       -0.71420000      -4.09020000      -1.36410000
C        1.47270000      -2.55150000      -2.36500000
C        2.09210000      -2.98420000      -3.30190000
H        1.11570000       1.96400000       0.01610000
H       -0.42470000       2.06980000      -0.84350000
H       -0.40000000       2.04630000       0.92450000
H        0.46130000      -0.30700000       0.90560000
H       -1.07500000      -0.19440000       0.06620000
H        0.11970000      -0.15090000      -2.14190000
H        1.66480000      -0.14240000      -1.31500000
H        1.11550000      -2.40470000      -0.31730000
H       -1.33090000      -2.40430000      -0.46070000
H       -1.26190000      -2.27020000      -2.22900000
H       -0.14190000      -4.34710000      -2.09760000
H        2.66550000      -3.35230000      -4.11660000
