15
Properties=species:S:1:pos:R:3 gdb_67817=T pbc="F F F"
O       -0.06540000       1.35930000      -0.06270000
C        0.05320000      -0.02820000      -0.06340000
C        1.09770000      -0.69120000      -0.85120000
C        1.08320000      -2.03150000      -0.83140000
C       -0.02380000      -2.60570000       0.00010000
O       -1.27700000      -2.08210000      -0.47700000
C       -1.29300000      -0.78010000       0.02560000
C       -0.39900000      -0.78540000       1.21990000
O        0.08690000      -2.08910000       1.34030000
H        0.63300000       1.72200000       0.49430000
H        1.80960000      -0.09040000      -1.40790000
H        1.78180000      -2.66630000      -1.36070000
H       -0.08420000      -3.69170000       0.04150000
H       -2.22830000      -0.25210000      -0.09190000
H       -0.55570000      -0.26620000       2.15500000
