20
Properties=species:S:1:pos:R:3 gdb_70570=T pbc="F F F"
C       -0.02560000       1.49530000      -0.03170000
C       -0.07520000      -0.01380000       0.06260000
C       -0.81690000      -0.63640000       1.24730000
C        0.68930000      -0.72200000       1.15130000
O        1.35220000      -1.92400000       0.88550000
C        0.69830000      -2.76490000      -0.05950000
C        0.40340000      -2.02660000      -1.35390000
C       -0.99450000      -1.62590000      -1.69790000
N       -0.03470000      -0.63160000      -1.24790000
H        0.83610000       1.81270000      -0.62650000
H       -0.92980000       1.88310000      -0.51460000
H        0.04840000       1.95060000       0.96110000
H       -1.24060000       0.04000000       1.98180000
H       -1.40550000      -1.53200000       1.09370000
H        1.29080000      -0.13170000       1.83460000
H        1.39110000      -3.58950000      -0.24140000
H       -0.21330000      -3.19200000       0.38220000
H        1.11690000      -2.19690000      -2.15730000
H       -1.30100000      -1.53540000      -2.73680000
H       -1.78590000      -1.94140000      -1.02050000
