20
Properties=species:S:1:pos:R:3 gdb_6834=T pbc="F F F"
C       -0.21980000       1.57060000      -0.01760000
C       -0.00690000       0.06080000       0.03890000
C       -1.24850000      -0.69400000      -0.42090000
O        1.14770000      -0.31660000      -0.76860000
C        1.85470000      -0.83350000       0.37640000
C        0.67340000      -0.52900000       1.31470000
C        0.95240000       0.35870000       2.51140000
O        1.69260000      -0.42600000       3.43800000
H        0.68840000       2.11410000       0.25380000
H       -0.48920000       1.86230000      -1.03780000
H       -1.03010000       1.88440000       0.64930000
H       -1.52000000      -0.39610000      -1.43890000
H       -1.06790000      -1.77250000      -0.41760000
H       -2.09910000      -0.48230000       0.23680000
H        2.12150000      -1.88940000       0.25470000
H        2.76830000      -0.26270000       0.58970000
H        0.16760000      -1.42980000       1.67200000
H        1.52400000       1.24850000       2.20680000
H        0.00520000       0.70990000       2.95250000
H        1.93410000       0.13350000       4.18200000
