16
Properties=species:S:1:pos:R:3 gdb_69875=T pbc="F F F"
C       -0.12810000       1.52220000       0.09090000
C        0.10160000       0.05100000       0.04110000
O       -0.79460000      -0.84220000       0.70380000
C        0.61500000      -0.94670000       0.97500000
C        1.29050000      -1.76230000      -0.16550000
C        0.30830000      -2.18000000      -1.21080000
C        0.75190000      -0.72870000      -1.17650000
C        1.45480000      -0.08770000      -2.22980000
N        2.02040000       0.46590000      -3.07650000
H        0.76920000       2.06140000      -0.22650000
H       -0.94580000       1.80650000      -0.58030000
H       -0.38960000       1.82870000       1.10650000
H        0.93680000      -0.87720000       2.00650000
H        2.30580000      -2.13100000      -0.11950000
H        0.72130000      -2.75290000      -2.03360000
H       -0.71260000      -2.41120000      -0.93660000
