16
Properties=species:S:1:pos:R:3 gdb_38336=T pbc="F F F"
C       -0.01930000       1.65160000       0.05830000
C        1.45480000       1.17810000      -0.00640000
O        1.14470000       0.19410000       1.04850000
C        0.02340000       0.10300000       0.09380000
C        1.05190000       0.11950000      -1.07890000
C        0.64720000       0.52410000      -2.51910000
O        1.31770000      -0.44650000      -3.35370000
C        1.98260000      -1.25120000      -2.48940000
N        1.91190000      -1.04060000      -1.24150000
H       -0.29770000       2.11060000       1.00630000
H       -0.45990000       2.15780000      -0.80510000
H        2.38120000       1.74620000       0.08390000
H       -0.76690000      -0.61830000       0.30420000
H       -0.42780000       0.45290000      -2.70820000
H        0.99380000       1.52060000      -2.80770000
H        2.54640000      -2.04610000      -2.96450000
