16
Properties=species:S:1:pos:R:3 gdb_35493=T pbc="F F F"
N       -0.13760000      -1.18130000      -0.23120000
C       -0.08370000      -0.03510000      -0.09430000
C       -0.01130000       1.43240000       0.04650000
O       -0.63030000       1.86510000       1.25760000
C        0.41750000       2.30110000       2.12620000
C        1.41090000       1.14570000       2.46690000
C        2.28170000       1.63700000       1.30690000
C        1.50440000       2.94740000       1.23380000
C        1.42190000       1.97210000       0.10120000
H       -0.55930000       1.87040000      -0.79680000
H       -0.03560000       2.85810000       2.94350000
H        1.90290000       1.31910000       3.42770000
H        1.01070000       0.12870000       2.43860000
H        3.34670000       1.47770000       1.19040000
H        1.81550000       3.98040000       1.16640000
H        1.92960000       2.17750000      -0.83260000
