19
Properties=species:S:1:pos:R:3 gdb_1614=T pbc="F F F"
C        0.03210000       1.55010000       0.00080000
C        0.01940000       0.01550000       0.03330000
C        0.77100000      -0.49460000       1.26990000
C       -1.42920000      -0.55480000      -0.01970000
C       -2.24200000      -0.05110000      -1.23180000
C       -1.42170000      -2.01860000      -0.01380000
C       -1.42230000      -3.22110000      -0.04480000
H        1.05690000       1.92230000       0.09790000
H       -0.37640000       1.95340000      -0.92920000
H       -0.54860000       1.96580000       0.83360000
H        0.53940000      -0.35370000      -0.86120000
H        0.29420000      -0.13620000       2.19060000
H        0.79030000      -1.58650000       1.30470000
H        1.80420000      -0.13290000       1.27120000
H       -1.94250000      -0.21850000       0.89410000
H       -3.22140000      -0.53500000      -1.26040000
H       -2.39770000       1.02900000      -1.18220000
H       -1.72440000      -0.28560000      -2.16750000
H       -1.42550000      -4.28270000      -0.05780000
