14
Properties=species:S:1:pos:R:3 gdb_75708=T pbc="F F F"
O        0.08190000       1.41680000      -0.06020000
C        0.05390000      -0.00160000      -0.03910000
C        0.66300000      -0.56870000       1.26770000
O        1.80320000      -0.89950000       1.45180000
C       -0.47230000      -0.72460000       2.25140000
N       -1.34000000       0.47490000       2.24500000
C       -1.75790000      -0.71120000       1.46400000
C       -1.39560000      -0.54660000       0.00710000
O       -2.08200000      -0.86020000      -0.92770000
H       -0.39830000       1.70970000       0.72900000
H        0.58930000      -0.35930000      -0.91960000
H       -0.34600000      -1.30450000       3.15800000
H       -1.87080000       0.51090000       3.11230000
H       -2.63160000      -1.28090000       1.75820000
