22
Properties=species:S:1:pos:R:3 gdb_61452=T pbc="F F F"
C        0.05080000       1.67240000      -0.19330000
C        0.08260000       0.13860000      -0.16070000
N        0.71250000      -0.34700000       1.06860000
C        2.06360000      -0.46560000       1.20560000
C        2.54180000      -0.95970000       2.56370000
O        2.84110000      -0.19660000       0.30510000
C       -1.26030000      -0.55980000      -0.30660000
C       -2.49770000      -0.11290000       0.44250000
C       -2.42570000       0.02300000      -1.05850000
H        1.07040000       2.04620000      -0.07580000
H       -0.33470000       2.04120000      -1.14810000
H       -0.56160000       2.08780000       0.61390000
H        0.73820000      -0.19170000      -0.97300000
H        0.11250000      -0.53850000       1.85430000
H        1.73240000      -1.25470000       3.23680000
H        3.20880000      -1.81150000       2.41050000
H        3.12790000      -0.16890000       3.04050000
H       -1.14900000      -1.63750000      -0.39540000
H       -3.14420000      -0.87430000       0.86480000
H       -2.45040000       0.80010000       1.02630000
H       -2.33440000       1.02340000      -1.46510000
H       -3.02040000      -0.64780000      -1.66840000
