18
Properties=species:S:1:pos:R:3 gdb_40665=T pbc="F F F"
C        0.24780000       1.53180000       0.00950000
O        1.22360000       0.50020000      -0.14750000
C       -0.15030000       0.11960000      -0.00980000
C       -0.51450000      -0.62960000       1.25520000
C       -1.99600000      -0.55860000       1.59840000
C       -2.54810000      -1.76480000       1.74200000
C       -1.54650000      -2.83750000       1.46900000
N       -1.04250000      -2.78690000       0.06430000
C       -0.27300000      -2.13960000       1.14920000
H        0.28520000       2.06790000       0.95790000
H        0.07910000       2.15640000      -0.86660000
H       -0.59740000      -0.28590000      -0.91620000
H        0.09270000      -0.20860000       2.06850000
H       -2.51980000       0.38750000       1.67740000
H       -3.58410000      -1.96320000       1.98880000
H       -1.58560000      -3.79660000       1.97360000
H       -0.59270000      -3.67470000      -0.15420000
H        0.69640000      -2.54510000       1.41500000
