20
Properties=species:S:1:pos:R:3 gdb_115749=T pbc="F F F"
C       -0.06830000       1.66480000      -0.13060000
C       -0.01370000       0.17390000       0.22140000
C       -1.37290000      -0.50360000       0.07050000
C       -1.86290000      -0.78780000      -1.36880000
O       -1.89400000      -2.21140000      -1.12880000
C       -1.49390000      -2.04480000       0.24160000
C       -0.23190000      -2.85150000       0.57710000
C       -0.48410000      -4.29080000       0.56890000
N       -0.69040000      -5.42750000       0.57470000
H        0.91530000       2.13150000      -0.02590000
H       -0.39960000       1.81800000      -1.16350000
H       -0.76510000       2.19940000       0.52380000
H        0.72520000      -0.32180000      -0.42040000
H        0.34230000       0.05670000       1.25300000
H       -2.11130000       0.02940000       0.67630000
H       -2.85390000      -0.39630000      -1.62570000
H       -1.15830000      -0.52600000      -2.16880000
H       -2.29720000      -2.34860000       0.92560000
H        0.56090000      -2.62870000      -0.14310000
H        0.13280000      -2.56780000       1.57150000
