19
Properties=species:S:1:pos:R:3 gdb_108942=T pbc="F F F"
O        0.01620000       1.43370000      -0.00350000
C       -0.01400000       0.04180000       0.15690000
C       -1.42060000      -0.48560000       0.09180000
N       -2.42330000       0.30270000      -0.02220000
C       -3.60750000      -0.53080000      -0.03100000
C       -4.78860000      -0.10410000       0.80410000
C       -4.85470000      -0.03710000      -0.70500000
C       -3.13120000      -1.99330000      -0.11000000
N       -1.70600000      -1.83510000       0.22030000
H       -0.91390000       1.70590000      -0.05130000
H        0.59220000      -0.44690000      -0.62440000
H        0.42640000      -0.25670000       1.12250000
H       -5.35760000      -0.87680000       1.31140000
H       -4.69250000       0.82790000       1.34880000
H       -4.80520000       0.93930000      -1.17310000
H       -5.47110000      -0.76310000      -1.22600000
H       -3.63660000      -2.64930000       0.60570000
H       -3.26570000      -2.41350000      -1.11710000
H       -1.04810000      -2.50470000      -0.15120000
