21
Properties=species:S:1:pos:R:3 gdb_86351=T pbc="F F F"
C       -0.82510000       1.33940000      -0.10120000
C        0.00350000       0.06250000      -0.12650000
C        1.40860000       0.09370000      -0.79150000
C        1.93460000      -0.82510000       0.32850000
O        3.20050000      -0.44590000       0.81230000
C        0.66720000      -0.48160000       1.18370000
C        0.94070000       0.55540000       2.28630000
C        1.68620000      -0.02910000       3.39800000
C        2.29730000      -0.55020000       4.29430000
H       -0.26770000       2.17890000       0.32720000
H       -1.11740000       1.62690000      -1.11710000
H       -1.74400000       1.21320000       0.48250000
H       -0.59630000      -0.74100000      -0.56760000
H        1.49850000      -0.25230000      -1.82340000
H        1.87510000       1.08010000      -0.70740000
H        1.92170000      -1.88280000       0.02800000
H        3.33180000      -0.85970000       1.67360000
H        0.16330000      -1.34180000       1.63300000
H        1.50840000       1.40100000       1.88250000
H       -0.00830000       0.95930000       2.65940000
H        2.82830000      -0.98540000       5.10430000
