14
Properties=species:S:1:pos:R:3 gdb_17097=T pbc="F F F"
O       -0.01830000      -0.01320000      -0.02770000
C        0.03740000       1.19690000       0.02420000
C        1.27880000       1.95670000       0.02660000
C        1.49420000       3.28300000       0.00130000
C        3.03100000       3.33930000      -0.00020000
C        3.37800000       2.27660000      -1.09010000
C        2.72330000       1.41960000       0.03470000
O        3.35390000       2.32450000       1.00350000
H       -0.88510000       1.81620000       0.07130000
H        0.79600000       4.10790000      -0.02370000
H        3.54650000       4.29000000       0.12190000
H        2.88980000       2.33340000      -2.06490000
H        4.45370000       2.10970000      -1.17280000
H        2.90210000       0.36020000       0.19790000
