21
Properties=species:S:1:pos:R:3 gdb_109952=T pbc="F F F"
C        0.20590000       1.65720000      -0.42750000
O       -0.15350000       0.29150000      -0.40760000
C        0.63220000      -0.51650000      -1.23700000
C        1.95720000      -1.16020000      -0.67910000
C        2.03000000      -1.20840000       0.84380000
C        1.51860000      -2.51030000      -1.33560000
C        0.10820000      -1.92980000      -1.45260000
C       -1.16880000      -2.47520000      -0.99510000
O       -0.88010000      -2.29780000      -2.39170000
H        1.22650000       1.82330000      -0.05330000
H        0.13740000       2.07580000      -1.44310000
H       -0.49600000       2.18600000       0.22170000
H        0.81390000      -0.02220000      -2.20420000
H        2.87460000      -0.73300000      -1.09140000
H        1.11140000      -1.61810000       1.27440000
H        2.86670000      -1.83610000       1.16790000
H        2.17330000      -0.21070000       1.27020000
H        1.97230000      -2.67550000      -2.31660000
H        1.63910000      -3.41270000      -0.73120000
H       -1.22260000      -3.51000000      -0.65840000
H       -1.91900000      -1.80180000      -0.58640000
