23
Properties=species:S:1:pos:R:3 gdb_80614=T pbc="F F F"
C       -0.14130000       1.56020000      -0.10300000
C        0.06230000       0.04690000      -0.02930000
C        0.95090000      -0.54190000      -1.15050000
C        1.17040000      -2.00220000      -0.66430000
C        1.96190000      -1.28880000       0.46990000
C        2.38820000      -0.26520000      -0.62050000
C        0.83950000      -0.54320000       1.22280000
C        1.34890000       0.46870000       2.24870000
O        0.06170000      -1.53390000       1.90160000
H        0.80450000       2.10970000      -0.13330000
H       -0.70050000       1.82200000      -1.00800000
H       -0.71350000       1.93580000       0.75200000
H       -0.92180000      -0.43570000      -0.04880000
H        0.66070000      -0.31220000      -2.17750000
H        0.29940000      -2.59390000      -0.37900000
H        1.82440000      -2.57000000      -1.33010000
H        2.68560000      -1.81300000       1.09550000
H        3.16090000      -0.66800000      -1.27930000
H        2.65780000       0.75110000      -0.32170000
H        2.01590000       1.21630000       1.81230000
H        0.51750000       1.00840000       2.71820000
H        1.89220000      -0.05990000       3.03760000
H       -0.64220000      -1.08050000       2.37710000
