29
Properties=species:S:1:pos:R:3 gdb_59978=T pbc="F F F"
C        0.75730000      -0.14630000      -1.31060000
C        0.09710000       0.04640000       0.06240000
C        0.03860000       1.53840000       0.42060000
C       -1.31550000      -0.57050000       0.12300000
C       -1.40140000      -2.11280000       0.06270000
C       -0.91110000      -2.71510000       1.39030000
C       -2.83630000      -2.58290000      -0.30800000
C       -3.19910000      -2.23130000      -1.76050000
C       -3.05020000      -4.09060000      -0.09630000
H        1.75900000       0.29630000      -1.32880000
H        0.86010000      -1.20230000      -1.57710000
H        0.16670000       0.33930000      -2.09730000
H        0.73000000      -0.44690000       0.81240000
H       -0.37780000       1.69310000       1.42170000
H        1.03480000       1.99290000       0.39670000
H       -0.59220000       2.08700000      -0.28960000
H       -1.80320000      -0.24410000       1.05270000
H       -1.90130000      -0.12660000      -0.69060000
H       -0.73550000      -2.47320000      -0.73490000
H       -0.79830000      -3.80050000       1.33510000
H        0.06150000      -2.30430000       1.67640000
H       -1.61310000      -2.49120000       2.20330000
H       -3.53520000      -2.05180000       0.35640000
H       -4.22850000      -2.52960000      -1.98480000
H       -3.11560000      -1.16300000      -1.97500000
H       -2.54290000      -2.76270000      -2.46080000
H       -2.95670000      -4.38380000       0.95210000
H       -4.05020000      -4.38500000      -0.43190000
H       -2.32500000      -4.67620000      -0.67500000
