17
Properties=species:S:1:pos:R:3 gdb_66376=T pbc="F F F"
O       -0.06100000       1.37700000       0.05090000
C        0.03680000      -0.04380000      -0.03140000
C        0.74890000      -0.59050000       1.23200000
O        0.60090000      -1.99370000       1.33290000
C       -0.75440000      -2.35870000       1.35190000
O       -1.43260000      -1.97840000       0.18370000
C       -1.41330000      -0.57570000       0.00530000
C        0.73080000      -0.46000000      -1.24890000
C        1.33150000      -0.74270000      -2.25100000
H        0.70840000       1.75260000      -0.38910000
H        1.81970000      -0.37650000       1.20370000
H        0.30390000      -0.07990000       2.10090000
H       -0.79250000      -3.44770000       1.40420000
H       -1.24930000      -1.90840000       2.23430000
H       -1.93080000      -0.06160000       0.83110000
H       -1.93020000      -0.35400000      -0.92960000
H        1.85180000      -1.01180000      -3.13720000
