16
Properties=species:S:1:pos:R:3 gdb_78338=T pbc="F F F"
C       -0.09430000       1.43240000      -0.01970000
C        0.05840000      -0.06440000      -0.11440000
C        0.82670000      -0.69460000      -1.20050000
N        1.43470000      -0.57170000       0.20630000
C        1.32730000      -2.02170000       0.34070000
O        1.67780000      -2.72950000       1.22890000
C        0.76560000      -2.20400000      -1.07190000
C       -0.09410000      -3.22960000      -1.67120000
O        1.29490000      -3.11700000      -2.00250000
H        0.77560000       1.93860000      -0.44490000
H       -0.99010000       1.75660000      -0.55940000
H       -0.19190000       1.74040000       1.02520000
H       -0.77190000      -0.63540000       0.30050000
H        1.26780000      -0.15830000      -2.03150000
H       -0.36250000      -4.10840000      -1.08820000
H       -0.78770000      -2.94310000      -2.45980000
