18
Properties=species:S:1:pos:R:3 gdb_102898=T pbc="F F F"
N        0.00770000       1.48950000      -0.02290000
C       -0.06620000       0.03020000       0.02980000
C        0.79870000      -0.47630000       1.20610000
N        0.29100000       0.08420000       2.44810000
C        1.20270000      -0.06950000       3.58430000
C        0.72480000       0.66790000       4.74760000
C        0.34050000       1.29480000       5.69720000
C        0.77810000      -1.94830000       1.25010000
N        0.77740000      -3.10350000       1.26710000
H        0.84180000       1.79130000      -0.51610000
H       -0.78570000       1.86790000      -0.52690000
H       -1.10160000      -0.25940000       0.22900000
H        0.25440000      -0.47870000      -0.88990000
H        1.85070000      -0.18730000       1.00520000
H        0.11200000       1.06880000       2.26770000
H        1.27390000      -1.13710000       3.83030000
H        2.23300000       0.26070000       3.34930000
H       -0.00180000       1.83830000       6.54280000
