21
Properties=species:S:1:pos:R:3 gdb_93678=T pbc="F F F"
C        0.61640000       1.37010000      -0.27620000
C       -0.16550000       0.12960000       0.15570000
O       -0.24160000      -0.86450000      -0.86680000
C        0.94740000      -1.64240000      -0.81980000
C        1.43880000      -1.65150000       0.64490000
C        1.42150000      -3.02830000       1.29810000
O        2.77000000      -1.11020000       0.65790000
C        0.46830000      -0.63600000       1.34240000
O        1.11460000       0.14960000       2.31310000
H        1.65890000       1.13380000      -0.51040000
H        0.15470000       1.80750000      -1.16550000
H        0.60840000       2.11520000       0.52450000
H       -1.19930000       0.41340000       0.37640000
H        0.70150000      -2.64030000      -1.19390000
H        1.73880000      -1.21970000      -1.45290000
H        2.13790000      -3.69950000       0.81300000
H        1.67570000      -2.95230000       2.36270000
H        0.42620000      -3.47660000       1.22720000
H        3.21300000      -1.43600000       1.44890000
H       -0.31950000      -1.18910000       1.86290000
H        1.97070000       0.37970000       1.92650000
