18
Properties=species:S:1:pos:R:3 gdb_126915=T pbc="F F F"
C        0.19500000       1.56910000      -0.08290000
C        0.46390000       0.06820000      -0.05600000
N        0.25910000      -0.52240000      -1.38780000
C        0.53540000      -1.91130000      -1.49700000
C        1.55500000      -2.38460000      -2.30190000
O        2.40870000      -1.70890000      -3.08690000
N        1.57390000      -3.72530000      -2.18780000
N        0.60720000      -4.18530000      -1.33940000
C       -0.01370000      -3.08810000      -0.92490000
H        0.84170000       2.06670000      -0.81170000
H       -0.84550000       1.77970000      -0.35720000
H        0.37280000       2.01210000       0.90130000
H        1.50310000      -0.12660000       0.23110000
H       -0.16630000      -0.41040000       0.71180000
H       -0.67890000      -0.30520000      -1.71150000
H        2.14560000      -0.77950000      -2.99050000
H        2.18770000      -4.37500000      -2.64760000
H       -0.83830000      -3.17640000      -0.23120000
