17
Properties=species:S:1:pos:R:3 gdb_95667=T pbc="F F F"
C        1.02020000       1.37970000       0.02560000
C       -0.03350000       0.28150000      -0.13360000
O        0.37210000      -0.51280000      -1.24010000
C       -0.36690000      -1.67090000      -1.44440000
O        0.23070000      -2.81340000      -0.84880000
C        0.35490000      -2.90910000       0.50110000
O        0.80480000      -3.92270000       0.96980000
C       -0.07810000      -1.79280000       1.38470000
C       -0.22940000      -0.48800000       1.13940000
H        1.98750000       0.93930000       0.28060000
H        1.12070000       1.92820000      -0.91390000
H        0.73150000       2.08070000       0.81330000
H       -0.99970000       0.76220000      -0.37360000
H       -1.40060000      -1.55800000      -1.08910000
H       -0.35610000      -1.89120000      -2.51300000
H       -0.22300000      -2.14900000       2.39940000
H       -0.52980000       0.14240000       1.97530000
