15
Properties=species:S:1:pos:R:3 gdb_9088=T pbc="F F F"
O       -0.49950000       0.94550000      -0.52420000
C        0.00130000      -0.34860000      -0.20630000
C        1.00980000      -0.83220000      -1.26700000
O        0.38670000      -0.98260000      -2.52850000
C        0.33230000       0.10150000      -3.33490000
N       -0.31070000       0.04100000      -4.41720000
C        0.60510000      -0.39920000       1.12470000
C        1.15010000      -0.40340000       2.19610000
H        0.12550000       1.59400000      -0.18140000
H       -0.86730000      -1.01570000      -0.25170000
H        1.85340000      -0.13010000      -1.31790000
H        1.39640000      -1.81630000      -0.99010000
H        0.89930000       0.95870000      -2.95230000
H       -0.22950000       0.92320000      -4.91790000
H        1.60850000      -0.41890000       3.15460000
