17
Properties=species:S:1:pos:R:3 gdb_17755=T pbc="F F F"
C       -0.01480000       1.51510000       0.07920000
C        0.00500000       0.02560000      -0.00440000
C        0.84210000      -0.97920000      -0.84350000
C        0.76900000      -1.99010000       0.24170000
C       -0.06560000      -1.03020000       1.11940000
C       -1.09730000      -1.01050000       0.01160000
C       -2.58350000      -0.93920000      -0.00490000
N       -0.27630000      -1.98890000      -0.84190000
H        0.95310000       1.91340000       0.40570000
H       -0.25390000       1.97030000      -0.88940000
H       -0.76890000       1.85310000       0.79860000
H        1.51550000      -0.86740000      -1.68610000
H        1.37560000      -2.86190000       0.45720000
H       -0.16360000      -0.88040000       2.18600000
H       -2.93880000      -0.15960000       0.67730000
H       -2.95430000      -0.70850000      -1.01000000
H       -3.02530000      -1.89160000       0.30860000
