17
Properties=species:S:1:pos:R:3 gdb_48019=T pbc="F F F"
O       -0.06920000      -0.10630000      -0.10990000
C        0.02210000       1.05040000       0.23450000
C        1.22150000       1.83980000       0.14510000
C        2.21120000       2.53130000       0.08280000
C        3.41480000       3.34530000      -0.00280000
C        4.28720000       3.05290000      -1.26620000
C        4.90220000       4.41850000      -1.65680000
C        3.97700000       5.41390000      -0.99830000
C        3.16790000       4.84520000      -0.10940000
H       -0.84750000       1.59510000       0.65670000
H        3.99930000       3.14400000       0.90960000
H        5.03060000       2.27570000      -1.07930000
H        3.63220000       2.69940000      -2.06640000
H        5.92510000       4.53130000      -1.27110000
H        4.96750000       4.54810000      -2.74240000
H        4.01370000       6.47640000      -1.21160000
H        2.43890000       5.34830000       0.51390000
