16
Properties=species:S:1:pos:R:3 gdb_14251=T pbc="F F F"
C       -0.74340000       1.34250000       0.04370000
C       -0.00310000       0.02370000       0.01340000
O        1.13060000       0.02460000      -0.90470000
C        1.98800000      -0.60260000       0.07540000
C        0.89630000      -0.43510000       1.18190000
C        1.74510000       0.66640000       1.87500000
C        2.83040000       0.48290000       0.78800000
O        3.90210000       0.97110000       0.59190000
H       -0.08480000       2.17290000       0.31030000
H       -1.16550000       1.55340000      -0.94380000
H       -1.56810000       1.29970000       0.76340000
H       -0.69370000      -0.78110000      -0.27690000
H        2.44740000      -1.53140000      -0.27310000
H        0.53890000      -1.24900000       1.80870000
H        1.31720000       1.66590000       1.97960000
H        2.12560000       0.35630000       2.85410000
