18
Properties=species:S:1:pos:R:3 gdb_67574=T pbc="F F F"
O       -0.09420000       1.38330000       0.09380000
C       -0.03680000      -0.00510000       0.06040000
C        0.84820000      -0.74660000       1.05920000
C        0.19410000      -1.68060000       2.01090000
N        0.62920000      -2.15500000       0.68240000
C       -0.39370000      -1.96870000      -0.37230000
C       -1.37610000      -0.77530000      -0.08690000
C       -1.39300000      -0.46380000      -1.60200000
C        0.07770000      -0.81950000      -1.30490000
H        0.80080000       1.72980000       0.01280000
H        1.87290000      -0.41260000       1.21070000
H        0.77120000      -2.08640000       2.83700000
H       -0.86750000      -1.57330000       2.21070000
H       -0.77880000      -2.89660000      -0.79230000
H       -2.22090000      -0.74830000       0.60170000
H       -1.94790000      -1.15870000      -2.23780000
H       -1.59560000       0.57370000      -1.87100000
H        0.92810000      -0.84630000      -1.98820000
