15
Properties=species:S:1:pos:R:3 gdb_30466=T pbc="F F F"
C        0.19830000       1.42680000       0.14730000
N        0.18100000      -0.02440000       0.11010000
C        0.40170000      -0.60030000      -0.99930000
O        0.65550000       0.09970000      -2.16220000
C        0.88640000      -0.57750000      -3.32830000
C        0.87060000      -1.92140000      -3.36320000
O        1.09660000      -2.61150000      -4.50650000
N        0.62270000      -2.68010000      -2.23430000
C        0.40430000      -2.05270000      -1.13200000
H        1.17050000       1.83240000      -0.16610000
H       -0.55560000       1.86200000      -0.52350000
H       -0.00680000       1.76280000       1.16570000
H        1.07250000       0.07340000      -4.16960000
H        1.03140000      -3.54590000      -4.27110000
H        0.20570000      -2.61540000      -0.22400000
