17
Properties=species:S:1:pos:R:3 gdb_38483=T pbc="F F F"
C       -0.02170000       1.48410000      -0.05370000
C        1.26290000       0.73840000       0.03760000
C        2.05520000       0.47000000       1.30630000
C        1.11500000      -0.40640000       2.14790000
O       -0.13160000       0.22750000       2.46970000
C       -0.12720000      -0.70820000       1.38750000
C       -0.04810000      -0.03490000       0.04460000
C        0.49650000      -0.65760000      -1.24260000
O        1.67540000       0.19910000      -1.23060000
H       -0.34270000       1.99780000       0.84350000
H       -0.28960000       1.95250000      -0.99590000
H        2.96130000      -0.08770000       1.05080000
H        2.35260000       1.37200000       1.84970000
H        1.51580000      -1.03970000       2.93730000
H       -0.71480000      -1.60970000       1.54420000
H        0.78020000      -1.71130000      -1.13380000
H       -0.09520000      -0.53040000      -2.15650000
