18
Properties=species:S:1:pos:R:3 gdb_36554=T pbc="F F F"
N       -0.04400000      -1.13210000       0.17270000
C       -0.00350000       0.02140000       0.22760000
C        0.07390000       1.47910000       0.28440000
C        1.38380000       2.02090000      -0.34780000
C        1.45500000       3.47390000      -0.28470000
C        1.48460000       4.67740000      -0.21660000
C        1.52940000       6.10900000      -0.14820000
C        1.57550000       6.81140000       1.20070000
C        2.79200000       6.81390000       0.32510000
H       -0.79060000       1.90380000      -0.23540000
H        0.00670000       1.80030000       1.32860000
H        2.23980000       1.57380000       0.17090000
H        1.44400000       1.67910000      -1.38770000
H        0.96970000       6.62110000      -0.92550000
H        1.00440000       7.72740000       1.30120000
H        1.58370000       6.18230000       2.08270000
H        3.62770000       6.18650000       0.61040000
H        3.06530000       7.73140000      -0.18360000
