18
Properties=species:S:1:pos:R:3 gdb_48284=T pbc="F F F"
O       -0.02300000      -0.11350000       0.13470000
C       -0.01590000       1.08460000       0.09790000
N        1.10770000       1.91420000      -0.01570000
C        0.90090000       3.36910000       0.02080000
C        0.95170000       3.95120000       1.41600000
C        2.26670000       4.35580000       2.03400000
C        1.27790000       5.41030000       1.60440000
C        2.41800000       1.42840000      -0.12860000
O        2.76040000       0.28020000      -0.10320000
H       -0.94010000       1.69650000       0.14280000
H        1.66160000       3.83890000      -0.61130000
H       -0.06580000       3.58060000      -0.44780000
H        0.21380000       3.53060000       2.09420000
H        2.40940000       4.17930000       3.09370000
H        3.16890000       4.24000000       1.44200000
H        1.51500000       5.99590000       0.72190000
H        0.74020000       5.96100000       2.36760000
H        3.12840000       2.26870000      -0.26210000
