19
Properties=species:S:1:pos:R:3 gdb_59615=T pbc="F F F"
C       -0.18630000       1.53630000       0.06100000
C        0.00250000       0.02160000      -0.04310000
O        0.68770000      -0.34310000      -1.23210000
C        0.73560000      -0.55530000       1.17340000
C        0.91700000      -2.07490000       1.16020000
C        2.26990000      -2.27140000       1.83510000
O        2.73560000      -3.28450000       2.28180000
C        2.93470000      -0.88970000       1.85750000
O        2.07770000      -0.02570000       1.13710000
H        0.78000000       2.03610000       0.17770000
H       -0.66880000       1.91240000      -0.84430000
H       -0.81010000       1.79690000       0.92280000
H       -0.97810000      -0.46530000      -0.10650000
H        1.59920000      -0.04860000      -1.10760000
H        0.23770000      -0.22920000       2.10010000
H        0.13260000      -2.64170000       1.66440000
H        0.99110000      -2.41940000       0.12150000
H        3.05700000      -0.56860000       2.90450000
H        3.92320000      -0.90850000       1.38860000
