18
Properties=species:S:1:pos:R:3 gdb_68945=T pbc="F F F"
C        0.18600000       1.49260000       0.14900000
C        0.00830000       0.00380000       0.06550000
C        1.08330000      -0.93030000      -0.39920000
C        0.56060000      -1.11870000       1.00230000
C        1.38380000      -0.95050000       2.20590000
O        2.39200000      -0.27980000       2.25000000
N       -0.70270000      -1.88610000       0.97160000
C       -1.73660000      -0.98440000       1.52560000
C       -1.29580000      -0.75590000       0.13220000
H        1.19150000       1.73340000       0.50650000
H        0.05520000       1.96110000      -0.83350000
H       -0.53620000       1.94360000       0.83690000
H        0.86640000      -1.71530000      -1.11810000
H        2.08070000      -0.50570000      -0.44900000
H        0.99510000      -1.47800000       3.10520000
H       -2.69060000      -1.48050000       1.67570000
H       -1.45860000      -0.27800000       2.30430000
H       -1.93600000      -0.97600000      -0.71700000
