21
Properties=species:S:1:pos:R:3 gdb_104633=T pbc="F F F"
C        0.02850000       1.47580000       0.09150000
N       -0.12040000       0.04010000      -0.13960000
C        0.68410000      -0.49590000      -1.21830000
C        2.26330000      -0.50730000      -1.14660000
C        2.24470000      -1.95990000      -1.69470000
C        3.21460000      -2.97570000      -1.11340000
C        0.74440000      -2.05330000      -1.30450000
C        0.23870000       0.08390000      -2.49360000
N       -0.08270000       0.53710000      -3.50730000
H        1.06480000       1.79660000       0.28900000
H       -0.33330000       2.02400000      -0.78350000
H       -0.58940000       1.76310000       0.94610000
H        0.10000000      -0.47380000       0.70650000
H        2.81040000       0.25230000      -1.70730000
H        2.57380000      -0.47550000      -0.09650000
H        2.33640000      -1.93890000      -2.78540000
H        3.14070000      -3.01130000      -0.02030000
H        3.01090000      -3.98230000      -1.49470000
H        4.25010000      -2.72690000      -1.36950000
H        0.61440000      -2.47530000      -0.30180000
H        0.05000000      -2.54440000      -1.98730000
