10
Properties=species:S:1:pos:R:3 gdb_4238=T pbc="F F F"
F       -0.34640000       0.13290000      -0.23670000
C       -0.06060000       1.41390000       0.00980000
F        1.25620000       1.50840000       0.23030000
F       -0.33930000       2.12640000      -1.09340000
C       -0.84690000       1.95350000       1.18240000
C       -2.11690000       1.33840000       1.57660000
O       -0.91330000       1.10610000       2.31450000
H       -0.65480000       3.00750000       1.37730000
H       -2.86350000       1.95080000       2.07750000
H       -2.49160000       0.48310000       1.02060000
