14
Properties=species:S:1:pos:R:3 gdb_1437=T pbc="F F F"
C       -0.31640000       1.30390000      -0.41680000
N       -0.86260000      -0.02500000      -0.22980000
C       -0.62810000      -0.75750000       0.88550000
O        0.04890000      -0.38910000       1.82710000
C       -1.28710000      -2.15460000       0.92120000
C       -2.08470000      -2.53740000      -0.23370000
C       -2.73850000      -2.82900000      -1.20060000
H        0.33400000       1.34580000      -1.29750000
H       -1.11240000       2.04750000      -0.53430000
H        0.26910000       1.54500000       0.47120000
H       -1.44070000      -0.43360000      -0.94760000
H       -0.47350000      -2.87090000       1.08150000
H       -1.89330000      -2.18190000       1.83360000
H       -3.32040000      -3.10560000      -2.04500000
