19
Properties=species:S:1:pos:R:3 gdb_32627=T pbc="F F F"
C       -0.14850000       1.56320000      -0.01140000
C        0.01900000       0.04100000      -0.01280000
N        0.69790000      -0.46030000      -1.19520000
C        0.10410000      -0.77870000      -2.38260000
C        1.07940000      -1.15950000      -3.28330000
C        2.31850000      -1.05490000      -2.60220000
O        3.58050000      -1.32920000      -3.06120000
C        2.07310000      -0.61880000      -1.31620000
N        2.92810000      -0.38160000      -0.21740000
H        0.82660000       2.05810000      -0.03030000
H       -0.71840000       1.89680000      -0.88370000
H       -0.67860000       1.88590000       0.89060000
H        0.60610000      -0.27050000       0.85410000
H       -0.95790000      -0.44980000       0.04480000
H       -0.96600000      -0.71070000      -2.49880000
H        0.91790000      -1.48060000      -4.30180000
H        3.50700000      -1.67210000      -3.95590000
H        3.50680000       0.44180000      -0.35710000
H        3.56240000      -1.16180000      -0.07930000
