16
Properties=species:S:1:pos:R:3 gdb_131147=T pbc="F F F"
O        0.23110000       1.32820000       0.33670000
C        0.04580000      -0.03580000       0.06470000
C       -0.68790000      -0.87740000       1.08410000
C       -1.38450000      -0.43880000      -0.18100000
C        1.13120000      -0.63230000      -0.74650000
N        1.26450000      -1.94650000      -0.95170000
N        2.34120000      -2.02510000      -1.72570000
N        2.93260000      -0.88420000      -2.04150000
C        2.17410000       0.02550000      -1.42730000
H        0.92630000       1.40370000       1.00040000
H       -0.39450000      -1.91640000       1.17880000
H       -0.96570000      -0.37730000       2.00520000
H       -2.11840000       0.35490000      -0.10380000
H       -1.56860000      -1.17870000      -0.95090000
H        2.69380000      -2.91150000      -2.04850000
H        2.38950000       1.07820000      -1.49850000
