15
Properties=species:S:1:pos:R:3 gdb_132944=T pbc="F F F"
C       -0.01980000       1.50500000       0.01860000
C       -0.00240000       0.00540000      -0.01840000
C       -0.03770000      -0.69620000      -1.18120000
N       -0.02160000      -2.06370000      -1.20450000
C        0.03120000      -2.78730000      -0.04380000
C        0.06840000      -2.14680000       1.14820000
F        0.11980000      -2.86280000       2.26880000
C        0.05510000      -0.68960000       1.27440000
O        0.08870000      -0.10770000       2.35440000
H        0.87030000       1.88490000       0.53090000
H       -0.06410000       1.93690000      -0.98480000
H       -0.87670000       1.86310000       0.59860000
H       -0.08050000      -0.21660000      -2.15230000
H       -0.04980000      -2.54770000      -2.08520000
H        0.04150000      -3.86610000      -0.12450000
