16
Properties=species:S:1:pos:R:3 gdb_23174=T pbc="F F F"
O       -0.06270000       1.30980000       0.00480000
N        0.03290000      -0.08400000      -0.08630000
C       -1.11670000      -0.64080000      -0.02770000
C       -2.45580000      -0.07130000       0.09470000
C       -3.37670000      -1.04680000       0.07940000
C       -2.77100000      -2.42070000      -0.05810000
C       -1.26580000      -2.13760000      -0.09400000
C       -0.25870000      -3.02340000      -0.69020000
O       -0.41100000      -2.94010000       0.72650000
H        0.86050000       1.58140000      -0.03530000
H       -2.63920000       0.98980000       0.18090000
H       -4.44710000      -0.89130000       0.15010000
H       -3.01410000      -3.07340000       0.78850000
H       -3.12330000      -2.93040000      -0.96360000
H       -0.57350000      -3.96350000      -1.14350000
H        0.65400000      -2.58220000      -1.08650000
