15
Properties=species:S:1:pos:R:3 gdb_535=T pbc="F F F"
C        0.00400000       1.50480000      -0.12200000
C       -0.10900000      -0.02160000      -0.10780000
C       -1.46550000      -0.49730000       0.42520000
N       -1.59050000      -1.94620000       0.46180000
C       -2.38070000      -2.64870000      -0.39350000
O       -3.09470000      -2.16770000      -1.24790000
H        0.97750000       1.82580000      -0.50360000
H       -0.76760000       1.95190000      -0.75790000
H       -0.11330000       1.92250000       0.88430000
H        0.03010000      -0.42170000      -1.11860000
H        0.69360000      -0.44760000       0.50910000
H       -1.63590000      -0.09380000       1.43170000
H       -2.27410000      -0.13960000      -0.21690000
H       -1.01600000      -2.46650000       1.10590000
H       -2.30540000      -3.74030000      -0.21450000
