19
Properties=species:S:1:pos:R:3 gdb_124604=T pbc="F F F"
C       -0.04440000       1.55710000       0.04340000
C       -0.02110000       0.02510000       0.03560000
C        0.73040000      -0.55210000       1.23960000
N       -1.38540000      -0.50250000      -0.01110000
N       -2.26040000      -0.24940000       1.00140000
C       -3.37860000      -0.86520000       0.64150000
C       -3.25740000      -1.52500000      -0.60010000
C       -1.95440000      -1.26000000      -0.97620000
O       -1.21750000      -1.60350000      -2.05920000
H        0.97680000       1.94950000       0.05260000
H       -0.55590000       1.94460000      -0.84220000
H       -0.56920000       1.92150000       0.93000000
H        0.45150000      -0.32420000      -0.88650000
H        0.76240000      -1.64440000       1.19320000
H        1.75780000      -0.17640000       1.25810000
H        0.23310000      -0.26230000       2.16860000
H       -4.24470000      -0.81760000       1.28600000
H       -3.99300000      -2.10050000      -1.13830000
H       -1.76320000      -2.14100000      -2.64080000
