16
Properties=species:S:1:pos:R:3 gdb_127452=T pbc="F F F"
C       -0.05040000       1.39110000      -0.03050000
N       -0.01280000      -0.05500000       0.01770000
N        0.01990000      -0.77160000      -1.11940000
C        0.03450000      -2.04520000      -0.71270000
C        0.05790000      -3.17080000      -1.65720000
O        0.07890000      -3.08880000      -2.86200000
C        0.03260000      -2.14430000       0.70100000
C        0.00780000      -0.83570000       1.13830000
N       -0.08340000      -0.26280000       2.40860000
H        0.93830000       1.82560000       0.15820000
H       -0.37820000       1.67810000      -1.02870000
H       -0.75440000       1.76370000       0.71810000
H        0.05510000      -4.16230000      -1.14740000
H        0.05380000      -3.03680000       1.30580000
H       -0.07630000      -0.96450000       3.13650000
H        0.63800000       0.42310000       2.60030000
