16
Properties=species:S:1:pos:R:3 gdb_29538=T pbc="F F F"
O        0.00180000       1.37780000      -0.06160000
C        0.03330000       0.01280000      -0.00920000
C        0.16000000      -0.82210000      -1.10670000
N        0.12460000      -2.13910000      -0.67040000
C        0.02660000      -2.14010000       0.69520000
C       -0.05310000      -0.84530000       1.11310000
O       -0.28520000      -0.68760000       2.45640000
C       -0.11130000      -2.02180000       3.00450000
C       -0.23800000      -3.06480000       1.84070000
H       -0.09550000       1.70640000       0.83700000
H        0.29680000      -0.57380000      -2.14550000
H        0.30890000      -2.93250000      -1.25680000
H        0.89130000      -2.07800000       3.44540000
H       -0.85530000      -2.15670000       3.79200000
H       -1.23790000      -3.52020000       1.80200000
H        0.48520000      -3.87650000       1.97580000
