21
Properties=species:S:1:pos:R:3 gdb_75602=T pbc="F F F"
C        0.06690000       1.53290000      -0.00270000
C        0.06700000       0.02800000       0.01530000
C        0.05960000      -0.70580000      -1.10340000
C       -0.01720000      -2.21230000      -1.17340000
C       -1.40180000      -2.78830000      -0.81370000
O       -1.73900000      -2.67900000       0.56120000
C       -2.23830000      -1.44040000       1.00280000
O       -1.35840000      -0.75660000       1.85520000
C       -0.01410000      -0.62220000       1.37670000
H        0.95480000       1.93500000       0.50230000
H        0.04550000       1.93030000      -1.02110000
H       -0.80260000       1.92530000       0.53910000
H        0.06320000      -0.18370000      -2.05910000
H        0.22130000      -2.54310000      -2.19070000
H        0.72070000      -2.68280000      -0.51350000
H       -2.17620000      -2.31380000      -1.43390000
H       -1.41320000      -3.86150000      -1.03090000
H       -2.51520000      -0.82600000       0.13210000
H       -3.12230000      -1.62660000       1.62190000
H        0.46510000      -1.60720000       1.37030000
H        0.48180000      -0.00700000       2.13300000
