16
Properties=species:S:1:pos:R:3 gdb_47575=T pbc="F F F"
O       -0.06150000      -0.10600000       0.04000000
C       -0.03520000       1.09540000       0.04720000
N       -1.13960000       1.89940000       0.09500000
C       -1.12350000       3.32600000       0.12360000
C       -1.58000000       4.03100000       1.38980000
C       -0.12470000       3.97100000       1.05540000
O        0.64270000       3.11160000       1.84210000
C        1.63180000       2.42620000       1.11590000
O        1.13870000       1.82130000      -0.06460000
H       -2.01830000       1.40740000       0.14960000
H       -1.31560000       3.82260000      -0.82480000
H       -2.09790000       4.97790000       1.29240000
H       -1.90600000       3.39990000       2.20830000
H        0.38930000       4.86740000       0.71190000
H        2.42810000       3.09780000       0.77090000
H        2.02980000       1.67570000       1.80700000
