23
Properties=species:S:1:pos:R:3 gdb_95777=T pbc="F F F"
C        0.11990000       1.63190000      -0.02290000
C       -0.00700000       0.10270000      -0.00380000
C        0.69600000      -0.48070000      -1.23780000
O        0.46010000      -1.85380000      -1.46640000
C        1.16300000      -2.74290000      -0.61810000
C        0.54900000      -2.94940000       0.75830000
C        0.27790000      -4.38070000       1.13980000
C        0.28160000      -1.93300000       1.58140000
C        0.54230000      -0.46800000       1.32000000
H        1.16970000       1.94330000       0.04190000
H       -0.29570000       2.05580000      -0.94310000
H       -0.40970000       2.08270000       0.82220000
H       -1.06780000      -0.16780000      -0.07930000
H        0.33320000       0.03050000      -2.13670000
H        1.78210000      -0.28820000      -1.16570000
H        1.18590000      -3.69790000      -1.15320000
H        2.21040000      -2.40740000      -0.51220000
H        1.19300000      -4.98600000       1.08950000
H       -0.12310000      -4.46160000       2.15350000
H       -0.43760000      -4.84510000       0.44860000
H       -0.15700000      -2.16800000       2.54960000
H        1.62680000      -0.27330000       1.35290000
H        0.11830000       0.11280000       2.14650000
