19
Properties=species:S:1:pos:R:3 gdb_68759=T pbc="F F F"
C       -0.12130000       1.57890000       0.04470000
C       -0.07710000       0.07380000       0.07910000
C        1.22640000      -0.66820000      -0.26680000
C        0.67020000      -0.75040000       1.11730000
O        1.30800000      -0.08410000       2.16100000
C       -0.15210000      -1.99100000       1.46160000
C       -1.19220000      -2.11530000       0.32990000
C       -1.31690000      -0.69900000      -0.25380000
O       -2.28400000      -0.25860000      -0.82600000
H        0.78160000       2.00000000       0.49350000
H       -0.20950000       1.94250000      -0.98330000
H       -0.98580000       1.95270000       0.60120000
H        1.20580000      -1.53040000      -0.92610000
H        2.07800000      -0.01030000      -0.40530000
H        2.15130000      -0.51870000       2.32760000
H        0.47000000      -2.88580000       1.57510000
H       -0.64750000      -1.80860000       2.42080000
H       -0.85740000      -2.79580000      -0.46210000
H       -2.17060000      -2.46950000       0.65920000
