20
Properties=species:S:1:pos:R:3 gdb_75522=T pbc="F F F"
C        0.03730000       1.53290000       0.22260000
C       -0.04990000       0.04230000      -0.00050000
C       -1.22350000      -0.59990000       0.07880000
C       -1.57910000      -2.04500000      -0.12610000
C       -0.48520000      -2.95120000      -0.69140000
C        0.81120000      -2.91310000       0.13610000
C        1.74110000      -1.77800000      -0.23890000
O        2.91680000      -1.95070000      -0.50070000
N        1.21710000      -0.50000000      -0.28660000
H        0.68860000       1.76750000       1.07330000
H        0.46060000       2.03690000      -0.65620000
H       -0.94770000       1.96100000       0.41160000
H       -2.06700000       0.02900000       0.34980000
H       -1.92000000      -2.46300000       0.83420000
H       -2.46000000      -2.09340000      -0.78140000
H       -0.86240000      -3.97880000      -0.71390000
H       -0.26570000      -2.68150000      -1.73110000
H        0.56560000      -2.83300000       1.20340000
H        1.39810000      -3.82350000       0.00320000
H        1.93880000       0.17210000      -0.50930000
