13
Properties=species:S:1:pos:R:3 gdb_128499=T pbc="F F F"
C       -0.12400000       1.37470000       0.20500000
O        0.05240000      -0.01980000      -0.08800000
C        0.70110000      -0.28360000      -1.23790000
C        0.82220000      -1.73460000      -1.43170000
C        0.34190000      -2.81280000      -0.56110000
O        0.47990000      -3.99360000      -0.78870000
N        1.44620000      -2.11160000      -2.53560000
N        1.96210000      -2.50560000      -3.45020000
O        1.12290000       0.55220000      -2.00070000
H        0.84410000       1.87360000       0.28990000
H       -0.70600000       1.86050000      -0.58150000
H       -0.65790000       1.40820000       1.15410000
H       -0.16800000      -2.42700000       0.33970000
