18
Properties=species:S:1:pos:R:3 gdb_24130=T pbc="F F F"
C       -0.13860000       1.63260000       0.05760000
N       -0.21930000       0.23470000      -0.37490000
C       -0.19670000      -0.76960000       0.68520000
C       -1.45570000      -0.46970000      -0.05180000
C        1.28630000       2.07010000       0.13980000
C        1.98670000       2.86770000       1.00860000
N        3.30070000       2.99050000       0.61460000
C        3.39850000       2.27020000      -0.47920000
N        2.20780000       1.69940000      -0.81570000
H       -0.69090000       2.22720000      -0.68350000
H       -0.62410000       1.80850000       1.03240000
H        0.36600000      -1.67310000       0.47020000
H       -0.12130000      -0.41980000       1.71300000
H       -2.22800000       0.07940000       0.48420000
H       -1.82640000      -1.14940000      -0.81360000
H        1.61650000       3.36430000       1.89340000
H        4.29510000       2.12120000      -1.06230000
H        2.01730000       1.04720000      -1.55910000
