19
Properties=species:S:1:pos:R:3 gdb_104326=T pbc="F F F"
O       -0.14540000       1.45230000       0.02850000
C       -0.00130000       0.03280000      -0.01800000
C       -1.41660000      -0.53650000       0.00100000
O       -2.07850000      -0.08850000       1.17820000
C       -2.22870000      -0.17430000      -1.27650000
O       -3.14600000      -1.24230000      -1.50000000
C       -2.61360000      -2.40160000      -0.91940000
C       -1.20650000      -2.79990000      -1.27600000
C       -1.49490000      -2.05120000       0.01790000
H        0.71450000       1.84780000       0.19520000
H        0.53560000      -0.28610000      -0.92200000
H        0.54390000      -0.33780000       0.86110000
H       -1.85390000       0.84750000       1.26040000
H       -2.79930000       0.74700000      -1.14410000
H       -1.56430000      -0.04860000      -2.14330000
H       -3.37380000      -3.14340000      -0.70840000
H       -0.94480000      -3.84770000      -1.17680000
H       -0.70460000      -2.29310000      -2.09300000
H       -1.35400000      -2.53710000       0.97510000
