17
Properties=species:S:1:pos:R:3 gdb_107984=T pbc="F F F"
O       -0.00730000       1.40220000       0.09260000
C        0.00300000      -0.01330000       0.04540000
C       -1.38990000      -0.55550000      -0.03160000
O       -2.29730000      -0.19000000       1.06420000
C       -3.12180000      -0.98410000       0.16300000
C       -2.49020000      -0.41480000      -1.13710000
C       -2.19300000      -1.81180000      -1.72300000
C       -1.96520000      -1.99540000      -0.20340000
O       -1.50500000      -3.08490000       0.49410000
H       -0.64990000       1.64720000       0.76910000
H        0.56990000      -0.30610000      -0.84470000
H        0.50680000      -0.44770000       0.92290000
H       -4.16680000      -1.15440000       0.42020000
H       -2.77570000       0.50400000      -1.64070000
H       -3.04230000      -2.34480000      -2.16060000
H       -1.31170000      -1.89850000      -2.36390000
H       -2.09340000      -3.83090000       0.33440000
