15
Properties=species:S:1:pos:R:3 gdb_64525=T pbc="F F F"
O       -0.00640000       1.41780000      -0.06740000
C       -0.04330000       0.03980000      -0.04310000
C        0.80550000      -0.50330000       1.07590000
O        1.43700000       0.23120000       1.80050000
C       -1.39560000      -0.67910000      -0.10960000
C       -1.69360000      -0.80470000      -1.61180000
O       -0.65540000      -0.14530000      -2.32800000
C        0.26180000      -0.74410000      -1.39250000
C       -0.80780000      -1.80880000      -0.96350000
H        0.60970000       1.67910000       0.63730000
H        0.82730000      -1.60360000       1.19550000
H       -2.16070000      -0.73620000       0.65380000
H       -2.68690000      -0.85510000      -2.03530000
H        1.26930000      -0.87780000      -1.77870000
H       -0.81700000      -2.88370000      -0.86330000
