18
Properties=species:S:1:pos:R:3 gdb_82251=T pbc="F F F"
O        0.22930000       1.16670000       0.63910000
C        0.06300000      -0.13690000       0.11820000
C       -1.41290000      -0.49370000      -0.07090000
N       -2.02440000       0.46790000      -1.00730000
C       -1.67610000      -0.88970000      -1.47930000
C       -0.35910000      -0.93500000      -2.24350000
O       -0.15330000       0.13190000      -3.18940000
C        0.78240000       0.79040000      -2.30350000
C        0.70890000      -0.36490000      -1.28050000
H       -0.40620000       1.71600000       0.16080000
H        0.52170000      -0.81110000       0.84840000
H       -1.99470000      -0.86950000       0.76460000
H       -3.02700000       0.52430000      -0.85220000
H       -2.48450000      -1.56500000      -1.74040000
H       -0.19330000      -1.91890000      -2.69670000
H        1.75800000       0.92900000      -2.78250000
H        0.40900000       1.75860000      -1.95600000
H        1.63460000      -0.93550000      -1.20510000
