19
Properties=species:S:1:pos:R:3 gdb_48584=T pbc="F F F"
O       -0.04280000      -0.10880000      -0.08940000
C        0.05410000       1.09180000      -0.15800000
C        1.34050000       1.84640000      -0.10670000
C        1.75660000       2.63330000       1.20610000
C        3.16420000       2.54980000       0.51560000
C        2.71250000       1.14450000       0.03340000
C        2.92590000       3.47330000      -0.69590000
C        2.75510000       2.89080000      -2.07850000
C        1.56790000       2.96650000      -1.15180000
H       -0.85510000       1.73320000      -0.24810000
H        1.31920000       3.62440000       1.35210000
H        1.67250000       2.02900000       2.11330000
H        4.08390000       2.68810000       1.08380000
H        2.69620000       0.41890000       0.84730000
H        3.17550000       0.69040000      -0.84170000
H        3.13570000       4.53130000      -0.58670000
H        2.75340000       3.61420000      -2.88840000
H        3.19960000       1.94330000      -2.35650000
H        0.74220000       3.63140000      -1.38020000
