17
Properties=species:S:1:pos:R:3 gdb_87031=T pbc="F F F"
C       -0.06480000       1.47500000      -0.35030000
N        0.12620000       0.03450000      -0.19680000
C        1.47070000      -0.44840000      -0.04320000
C        0.53040000      -0.47610000       1.14020000
C        0.76670000       0.46510000       2.20700000
N        0.92480000       1.20750000       3.08090000
C       -0.11030000      -1.81820000       1.50220000
C       -0.66560000      -1.97360000       2.89710000
O       -0.14560000      -2.68950000       0.67030000
H        0.67450000       2.08460000       0.18820000
H        0.00060000       1.70240000      -1.41780000
H       -1.06420000       1.74440000       0.00070000
H        1.68210000      -1.40730000      -0.50640000
H        2.28660000       0.27140000       0.00210000
H       -1.41620000      -1.20090000       3.09760000
H       -1.10860000      -2.96370000       3.00280000
H        0.12660000      -1.83630000       3.64110000
