23
Properties=species:S:1:pos:R:3 gdb_60129=T pbc="F F F"
C        0.02730000       1.57920000       0.04710000
C       -0.04150000       0.05550000      -0.05140000
O        0.92710000      -0.55760000       0.80160000
C       -1.45560000      -0.48070000       0.22250000
C       -1.53660000      -1.98460000       0.06260000
C       -2.85660000      -2.73660000      -0.01560000
C       -4.19620000      -2.03540000       0.05970000
C       -1.97360000      -2.59870000      -1.24030000
O       -2.33660000      -1.70310000      -2.25630000
H        1.04950000       1.92570000      -0.12780000
H       -0.63260000       2.05420000      -0.68590000
H       -0.28330000       1.91920000       1.04370000
H        0.25490000      -0.25350000      -1.06070000
H        0.73720000      -0.27330000       1.70300000
H       -1.74590000      -0.19370000       1.24500000
H       -2.15340000       0.01500000      -0.45700000
H       -0.72930000      -2.50360000       0.57000000
H       -2.84820000      -3.72050000       0.44800000
H       -4.21390000      -1.13380000      -0.55640000
H       -4.99900000      -2.69350000      -0.29270000
H       -4.43970000      -1.74620000       1.08780000
H       -1.44140000      -3.48160000      -1.59410000
H       -3.05820000      -2.09690000      -2.75760000
