13
Properties=species:S:1:pos:R:3 gdb_21597=T pbc="F F F"
N        0.01460000       1.39430000       0.13340000
C       -0.05730000       0.02800000       0.04570000
C       -1.19760000      -0.72470000       0.02430000
N       -1.11770000      -2.09030000      -0.01270000
N        0.00510000      -2.79430000      -0.03100000
C        1.12360000      -2.11020000      -0.01710000
C        1.23520000      -0.66590000       0.01450000
O        2.29700000      -0.03720000       0.00460000
H        0.95170000       1.72530000      -0.06570000
H       -0.73730000       1.94740000      -0.24450000
H       -2.20050000      -0.31440000       0.03850000
H       -1.95720000      -2.64640000      -0.02730000
H        2.03680000      -2.69520000      -0.04120000
