23
Properties=species:S:1:pos:R:3 gdb_122539=T pbc="F F F"
C       -0.06590000       1.40030000      -0.29960000
O       -0.03520000       0.05180000       0.09650000
C       -1.27830000      -0.59650000      -0.06410000
C       -1.13540000      -2.04400000       0.39480000
C       -2.44170000      -2.80320000       0.27460000
C       -2.84790000      -3.47310000      -1.01800000
C       -2.53150000      -4.31120000       0.19570000
C       -1.32010000      -5.20550000       0.22060000
O       -1.67340000      -6.43190000      -0.40920000
H        0.93260000       1.81410000      -0.13740000
H       -0.32640000       1.50980000      -1.36490000
H       -0.79180000       1.98450000       0.28910000
H       -2.05800000      -0.08240000       0.52590000
H       -1.60060000      -0.56100000      -1.11900000
H       -0.34930000      -2.51520000      -0.20370000
H       -0.78320000      -2.04370000       1.43380000
H       -3.25510000      -2.34200000       0.83140000
H       -3.87670000      -3.40300000      -1.35280000
H       -2.11920000      -3.48170000      -1.82350000
H       -3.38450000      -4.75430000       0.70250000
H       -0.47710000      -4.72610000      -0.29920000
H       -1.00420000      -5.37760000       1.26260000
H       -0.92760000      -7.03350000      -0.32500000
