16
Properties=species:S:1:pos:R:3 gdb_47084=T pbc="F F F"
O        0.00310000      -0.04840000       0.04090000
C        0.03030000       1.15030000      -0.01190000
O       -1.12820000       1.90980000       0.09570000
C       -0.82990000       3.31750000       0.21120000
C        0.57110000       3.48380000      -0.39610000
C        1.65710000       4.37820000       0.23780000
N        2.85480000       3.49900000       0.17350000
C        2.41770000       2.18410000       0.18130000
C        1.12040000       2.10180000      -0.15570000
H       -1.61960000       3.86220000      -0.31040000
H       -0.84330000       3.59800000       1.27330000
H        0.49040000       3.69360000      -1.47170000
H        1.83050000       5.30860000      -0.30610000
H        1.41490000       4.62150000       1.28450000
H        3.64080000       3.73470000       0.76120000
H        3.10100000       1.38660000       0.44290000
