20
Properties=species:S:1:pos:R:3 gdb_86915=T pbc="F F F"
O       -0.10790000       1.19610000      -0.45060000
C        0.01910000      -0.15080000      -0.06570000
C        0.18190000      -0.39090000       1.45900000
N       -1.27400000      -0.63640000       1.53040000
C       -1.77410000      -1.61660000       2.46950000
C       -3.28590000      -1.64460000       2.47440000
C       -4.05250000      -2.64770000       1.72280000
O       -3.88990000      -2.75360000       3.13780000
C       -1.31700000      -0.92590000       0.07980000
H       -0.77360000       1.59690000       0.12040000
H        0.77550000      -0.58780000      -0.71800000
H        0.78870000      -1.28500000       1.67770000
H        0.54720000       0.44950000       2.05950000
H       -1.39690000      -2.63760000       2.26490000
H       -1.42280000      -1.33920000       3.47170000
H       -3.75870000      -0.68210000       2.67310000
H       -5.06130000      -2.41740000       1.38310000
H       -3.52400000      -3.39870000       1.13630000
H       -2.18280000      -0.52680000      -0.45910000
H       -1.20630000      -1.99830000      -0.15360000
