18
Properties=species:S:1:pos:R:3 gdb_94476=T pbc="F F F"
O        0.03630000       1.20520000      -0.42480000
C        0.06970000      -0.11250000       0.06270000
C       -0.00900000      -0.22810000       1.59840000
O       -1.24680000      -1.00310000       1.48740000
C       -1.25550000      -0.84870000       0.11160000
N       -2.10410000      -1.16050000      -0.75340000
C       -3.32470000      -1.79200000      -0.36760000
C       -4.54440000      -1.48590000      -1.20660000
C       -3.88300000      -2.83200000      -1.31270000
H       -0.46650000       1.19000000      -1.24730000
H        0.88390000      -0.69620000      -0.38770000
H        0.77180000      -0.80500000       2.09760000
H       -0.18280000       0.72630000       2.09950000
H       -3.48270000      -1.95440000       0.69570000
H       -5.49930000      -1.41010000      -0.69890000
H       -4.40420000      -0.79050000      -2.02560000
H       -3.29970000      -3.03740000      -2.20230000
H       -4.37660000      -3.69400000      -0.87840000
