18
Properties=species:S:1:pos:R:3 gdb_50208=T pbc="F F F"
O       -0.58880000       0.73880000       0.64510000
C        0.16640000       0.99280000      -0.25990000
C        1.30110000       1.98280000      -0.18320000
C        1.21360000       3.12500000      -1.24420000
C        1.79670000       4.31010000      -0.48220000
C        1.14520000       4.79220000       0.76230000
C        0.25600000       3.72910000       1.38870000
C        1.43050000       2.74870000       1.12950000
N        2.37790000       3.91020000       0.82380000
H        0.06100000       0.48700000      -1.24810000
H        2.22720000       1.41900000      -0.36740000
H        1.79800000       2.89990000      -2.13940000
H        0.18280000       3.31060000      -1.56480000
H        2.39940000       5.02880000      -1.02860000
H        1.18580000       5.83760000       1.05460000
H        0.11060000       3.90390000       2.45610000
H       -0.71380000       3.51430000       0.93220000
H        1.75830000       2.14670000       1.97500000
