14
Properties=species:S:1:pos:R:3 gdb_30502=T pbc="F F F"
C        0.00630000       1.43890000      -0.02670000
N       -0.00690000      -0.01100000       0.01690000
C        0.51890000      -0.68040000      -0.90230000
O        1.14270000       0.03970000      -2.01380000
C        1.69650000      -0.66540000      -2.98190000
N        1.75020000      -1.94510000      -3.05900000
C        1.14430000      -2.58700000      -1.98020000
O        1.19180000      -3.91500000      -2.04560000
N        0.56670000      -2.04420000      -0.96770000
H        1.02740000       1.84230000      -0.04230000
H       -0.51060000       1.83020000      -0.91280000
H       -0.49960000       1.82260000       0.86180000
H        2.13200000      -0.04100000      -3.75960000
H        1.65670000      -4.13980000      -2.86320000
