19
Properties=species:S:1:pos:R:3 gdb_114026=T pbc="F F F"
O       -0.31320000       0.94610000      -1.19710000
C       -0.06110000       0.14940000      -0.05340000
C       -1.27370000      -0.68400000       0.29500000
N       -1.54250000      -1.81200000      -0.62010000
C       -1.24500000      -2.08410000       0.79810000
C        0.00960000      -2.87150000       1.08790000
O       -0.24960000      -4.27460000       1.03370000
C       -0.23000000      -4.84380000      -0.19170000
N       -0.57620000      -6.05000000      -0.32550000
H       -0.56090000       0.33510000      -1.90100000
H        0.81830000      -0.49240000      -0.20220000
H        0.16720000       0.84360000       0.76220000
H       -2.13310000      -0.08930000       0.60080000
H       -2.53820000      -1.90490000      -0.79910000
H       -2.08070000      -2.37930000       1.43050000
H        0.80940000      -2.60500000       0.38870000
H        0.35920000      -2.67950000       2.10620000
H        0.11010000      -4.16510000      -0.98350000
H       -0.47590000      -6.32990000      -1.29910000
