17
Properties=species:S:1:pos:R:3 gdb_41102=T pbc="F F F"
C        0.02170000       1.53800000       0.08040000
O        1.47570000       1.54820000      -0.18030000
C        1.47840000       0.14110000      -0.26750000
C        1.74470000      -1.04850000       0.70740000
C        0.28640000      -0.89030000       1.23910000
C       -0.01650000      -0.00340000      -0.00770000
C       -0.18410000      -0.72890000      -1.37840000
C        1.36450000      -0.91810000      -1.40840000
O        1.75780000      -1.92550000      -0.44510000
H       -0.20280000       1.97590000       1.05930000
H       -0.51910000       2.08440000      -0.70030000
H        2.58250000      -1.25120000       1.37760000
H       -0.28430000      -1.81310000       1.36600000
H        0.25080000      -0.31050000       2.16730000
H       -0.78290000      -1.64210000      -1.40820000
H       -0.52700000      -0.04370000      -2.16060000
H        1.91310000      -1.02160000      -2.34670000
