13
Properties=species:S:1:pos:R:3 gdb_50814=T pbc="F F F"
N        0.30670000       1.26830000       0.00470000
C        0.05540000       0.02840000       0.00130000
N       -1.23790000      -0.49490000       0.01130000
C       -2.44070000       0.16580000       0.02710000
O       -2.64160000       1.35900000       0.03560000
C       -3.61730000      -0.82890000       0.03280000
O       -3.45000000      -2.02300000       0.02480000
C       -5.03240000      -0.20440000       0.04950000
O       -6.00350000      -0.91050000       0.05470000
H        1.31450000       1.41790000      -0.00430000
H        0.79600000      -0.78020000      -0.00970000
H       -1.33430000      -1.50260000       0.00660000
H       -5.07360000       0.89710000       0.05580000
