16
Properties=species:S:1:pos:R:3 gdb_27116=T pbc="F F F"
N       -0.20390000       1.43440000       0.00020000
C        0.02760000       0.02820000      -0.01970000
C       -0.99290000      -0.88530000      -0.00630000
N       -2.34500000      -0.61730000       0.02710000
C       -3.42770000      -1.46500000       0.04230000
N       -3.34660000      -2.73550000       0.02690000
O       -0.52530000      -2.14370000      -0.03010000
C        0.84570000      -2.05320000      -0.06020000
C        1.23440000      -0.75460000      -0.05530000
H        0.22670000       1.87180000       0.80970000
H        0.18940000       1.88870000      -0.81890000
H       -2.52090000       0.37670000       0.04140000
H       -4.35910000      -0.88550000       0.06930000
H       -4.28150000      -3.13700000       0.04350000
H        1.36340000      -2.99640000      -0.08160000
H        2.24930000      -0.38770000      -0.07440000
