17
Properties=species:S:1:pos:R:3 gdb_53296=T pbc="F F F"
C        0.09330000       1.53910000      -0.24010000
C        0.01460000       0.09000000      -0.13990000
C       -0.05110000      -1.10930000      -0.04750000
C       -0.09050000      -2.54470000       0.03180000
O       -0.26870000      -3.14610000       1.32700000
C       -1.31860000      -3.29890000       0.37550000
C       -2.60720000      -2.61380000       0.67480000
C       -3.80600000      -2.88520000      -0.12970000
O       -3.65670000      -3.45160000       1.17000000
H        0.98750000       1.84950000      -0.79120000
H       -0.77930000       1.95200000      -0.75800000
H        0.13910000       1.99800000       0.75350000
H        0.64220000      -3.06060000      -0.58910000
H       -1.42750000      -4.30750000      -0.02680000
H       -2.51150000      -1.65210000       1.17480000
H       -4.56890000      -2.11440000      -0.22670000
H       -3.75330000      -3.59190000      -0.95740000
