19
Properties=species:S:1:pos:R:3 gdb_41035=T pbc="F F F"
C       -0.01560000       1.50420000       0.15170000
O        1.33680000       1.57930000      -0.35850000
C        1.48510000       0.15940000      -0.45760000
C        0.97650000      -0.35790000      -1.86990000
C       -0.30730000      -0.81090000      -1.13410000
C       -1.82260000      -0.75200000      -0.75350000
C       -1.01990000      -1.08690000       0.59000000
C       -0.20670000      -2.09450000      -0.24960000
C        0.01010000      -0.02080000       0.13710000
H       -0.07080000       1.95120000       1.15330000
H       -0.74180000       2.01260000      -0.49860000
H        2.44830000      -0.19000000      -0.07690000
H        0.87870000       0.48820000      -2.55340000
H        1.53840000      -1.16010000      -2.35510000
H       -2.30490000       0.22630000      -0.80510000
H       -2.48730000      -1.54050000      -1.12050000
H       -1.46310000      -1.24970000       1.57620000
H       -0.73710000      -2.97520000      -0.62130000
H        0.78570000      -2.35340000       0.12850000
