18
Properties=species:S:1:pos:R:3 gdb_119027=T pbc="F F F"
C        0.16460000       0.28790000      -3.57070000
O        0.27150000      -0.93790000      -2.87910000
C        0.99920000      -0.83050000      -1.67600000
C        0.92430000      -2.16830000      -0.97180000
C       -0.48210000      -2.67710000      -0.66940000
C       -1.24460000      -1.75280000       0.17040000
N       -1.84110000      -1.01030000       0.82440000
C        2.01260000      -3.14190000      -1.11940000
O        1.88310000      -2.34520000       0.06510000
H       -0.34400000       1.05160000      -2.96380000
H        1.15270000       0.67650000      -3.86070000
H       -0.42140000       0.10100000      -4.47310000
H        2.05380000      -0.57270000      -1.85860000
H        0.57180000      -0.04890000      -1.02680000
H       -1.01840000      -2.81210000      -1.61420000
H       -0.42220000      -3.64650000      -0.16630000
H        1.81100000      -4.20400000      -0.98960000
H        2.86250000      -2.90210000      -1.75530000
