14
Properties=species:S:1:pos:R:3 gdb_5432=T pbc="F F F"
C       -0.00320000       1.50600000       0.06230000
C        0.01390000       0.01750000      -0.02300000
C       -0.00320000      -0.82320000      -1.12950000
C        0.02670000      -2.17610000      -0.65830000
C        0.06090000      -2.12040000       0.70750000
N        0.05280000      -0.79180000       1.07550000
C       -0.04350000      -0.38970000      -2.47620000
N       -0.07660000      -0.02600000      -3.57650000
H        0.89180000       1.89590000       0.56150000
H       -0.03850000       1.93050000      -0.94290000
H       -0.87700000       1.87250000       0.61390000
H        0.02260000      -3.06280000      -1.27060000
H        0.09010000      -2.90170000       1.44890000
H        0.07270000      -0.45780000       2.02410000
