16
Properties=species:S:1:pos:R:3 gdb_98809=T pbc="F F F"
C       -0.18560000       1.42630000       0.13410000
N       -0.12730000      -0.02110000       0.23020000
C        0.74400000      -0.66060000       1.05600000
O        1.55350000      -0.12520000       1.78120000
C        0.63910000      -2.19240000       0.93720000
O        1.03400000      -2.91440000       2.11540000
C       -0.25440000      -3.54450000       2.28480000
C       -0.76300000      -2.79680000       1.05110000
O       -1.79190000      -2.66730000       0.45660000
H        0.66460000       1.82740000       0.68670000
H       -0.12500000       1.74980000      -0.90980000
H       -1.10940000       1.82120000       0.57160000
H       -0.84580000      -0.57080000      -0.21930000
H        1.19560000      -2.51290000       0.04480000
H       -0.21570000      -4.63640000       2.18630000
H       -0.74180000      -3.27710000       3.23050000
