14
Properties=species:S:1:pos:R:3 gdb_48608=T pbc="F F F"
O       -0.78330000       1.02290000      -0.05130000
C        0.38670000       0.74900000      -0.01040000
C        1.45870000       1.79750000      -0.00080000
C        1.91670000       2.73170000       1.15860000
C        2.89760000       2.86020000      -0.02770000
O        2.86340000       1.39010000      -0.18960000
C        1.68340000       2.98370000      -0.99970000
C        1.90230000       2.65700000      -2.39670000
N        2.06110000       2.43010000      -3.51840000
H        0.76660000      -0.29330000       0.03600000
H        1.28140000       3.58070000       1.41620000
H        2.31690000       2.20450000       2.02310000
H        3.86570000       3.35220000      -0.09610000
H        1.03280000       3.85170000      -0.88000000
