18
Properties=species:S:1:pos:R:3 gdb_54728=T pbc="F F F"
C       -0.05430000       1.46740000       0.05700000
C        0.00790000      -0.04900000       0.01260000
O        0.95020000      -0.68920000       0.42540000
N       -1.08660000      -0.64790000      -0.60830000
C       -2.46310000      -0.60660000      -0.11090000
C       -3.43250000      -1.15460000      -1.20110000
C       -2.70300000      -1.58970000      -2.44360000
C       -2.64140000      -2.45980000      -1.21860000
C       -1.68590000      -1.88010000      -0.13050000
H        0.95920000       1.86550000      -0.01010000
H       -0.67730000       1.87600000      -0.74130000
H       -0.47410000       1.78670000       1.01790000
H       -2.73270000       0.01940000       0.73040000
H       -4.50420000      -1.01310000      -1.16060000
H       -3.34620000      -1.96660000      -3.23240000
H       -1.82370000      -1.05360000      -2.78000000
H       -3.01460000      -3.47460000      -1.19190000
H       -1.22250000      -2.42350000       0.68170000
