21
Properties=species:S:1:pos:R:3 gdb_92626=T pbc="F F F"
C        0.86310000       1.41560000       0.02680000
C        0.14270000       0.07450000      -0.06910000
C        0.56040000      -0.78040000      -1.28660000
C        1.49370000      -1.83390000      -0.69180000
O        2.84330000      -1.36870000      -0.60260000
C        3.29770000      -1.38360000       0.75490000
C        2.28480000      -2.22550000       1.53990000
C        1.00120000      -1.97860000       0.75230000
O        0.44850000      -0.71230000       1.09700000
H        1.94470000       1.27840000      -0.06280000
H        0.53360000       2.08380000      -0.77620000
H        0.64610000       1.89660000       0.98470000
H       -0.94150000       0.25000000      -0.07620000
H       -0.30760000      -1.27340000      -1.73570000
H        1.05960000      -0.19730000      -2.06340000
H        1.47670000      -2.77540000      -1.25450000
H        4.31210000      -1.79510000       0.77710000
H        3.33360000      -0.35740000       1.14360000
H        2.54110000      -3.28960000       1.50250000
H        2.19170000      -1.92430000       2.58520000
H        0.25250000      -2.77190000       0.87910000
