18
Properties=species:S:1:pos:R:3 gdb_86738=T pbc="F F F"
C        0.77390000       1.57070000      -0.42210000
C        0.10930000       0.19690000      -0.34420000
O        0.95500000      -0.79230000      -0.96630000
C        1.26300000      -1.84260000      -0.04920000
C        0.55780000      -1.46500000       1.22550000
C       -0.09940000      -0.32580000       1.05250000
C        0.82140000      -3.23050000      -0.55370000
N        0.18460000      -3.21030000      -1.74900000
O        1.04090000      -4.22650000       0.10810000
H        1.71610000       1.57270000       0.13340000
H        0.98100000       1.83220000      -1.46360000
H        0.11660000       2.33790000       0.00050000
H       -0.84290000       0.23180000      -0.89780000
H        2.35270000      -1.90750000       0.08870000
H        0.60180000      -2.08650000       2.10870000
H       -0.70780000       0.19140000       1.78350000
H        0.13260000      -2.34530000      -2.26030000
H       -0.08250000      -4.08100000      -2.17660000
