21
Properties=species:S:1:pos:R:3 gdb_65791=T pbc="F F F"
O        0.00610000       1.35160000      -0.22970000
C        0.02270000      -0.07340000      -0.11770000
C        0.98510000      -0.66230000      -1.19280000
C        2.30750000      -0.73610000      -0.46650000
C        2.14900000      -0.63410000       0.85460000
C        0.69450000      -0.47520000       1.22990000
C       -1.40770000      -0.54880000      -0.25260000
C       -2.55410000       0.25120000       0.31060000
C       -2.37490000       0.13580000      -1.18380000
H        0.91730000       1.65240000      -0.14360000
H        0.66140000      -1.66100000      -1.51680000
H        0.99350000      -0.02650000      -2.08420000
H        3.25330000      -0.88820000      -0.97500000
H        2.94580000      -0.69030000       1.58830000
H        0.50460000       0.28810000       1.99150000
H        0.28560000      -1.41910000       1.61600000
H       -1.49640000      -1.62930000      -0.17980000
H       -3.37150000      -0.28600000       0.77910000
H       -2.31610000       1.20710000       0.76090000
H       -2.02030000       1.01670000      -1.70500000
H       -3.06880000      -0.48080000      -1.74460000
