16
Properties=species:S:1:pos:R:3 gdb_32029=T pbc="F F F"
C       -0.04040000       1.40310000      -0.10170000
N       -0.00110000      -0.03440000       0.08610000
C        0.65070000      -0.61210000       1.11500000
N        1.20000000       0.07740000       2.06380000
C        1.79690000      -0.66640000       3.05650000
C        1.84400000      -2.01740000       3.07790000
C        1.23820000      -2.76720000       2.00850000
N        1.20830000      -4.02840000       1.89270000
O        0.62980000      -1.96190000       1.01450000
H        0.91580000       1.79940000      -0.46400000
H       -0.82220000       1.63990000      -0.82590000
H       -0.26990000       1.88850000       0.84850000
H       -0.29900000      -0.64590000      -0.65490000
H        2.24930000      -0.08290000       3.85300000
H        2.32330000      -2.57670000       3.86850000
H        0.71690000      -4.30780000       1.04410000
