18
Properties=species:S:1:pos:R:3 gdb_55390=T pbc="F F F"
C       -0.83480000       0.23690000       0.65480000
C        0.37250000       0.40660000      -0.23680000
O        1.28850000       1.15320000       0.01790000
C        0.44870000      -0.42500000      -1.52160000
C        1.60570000      -1.42700000      -1.47450000
C        1.57220000      -2.27180000      -2.75050000
N        0.23690000      -2.77060000      -3.07300000
C       -0.75710000      -2.19220000      -2.55440000
O       -0.79750000      -1.10030000      -1.74100000
H       -1.74530000       0.50380000       0.10870000
H       -0.95100000      -0.81290000       0.94360000
H       -0.72280000       0.86480000       1.53880000
H        0.60920000       0.27770000      -2.35050000
H        2.54490000      -0.88110000      -1.35960000
H        1.48430000      -2.07360000      -0.59720000
H        1.94270000      -1.69310000      -3.60710000
H        2.23940000      -3.13500000      -2.65480000
H       -1.76990000      -2.55000000      -2.72930000
