16
Properties=species:S:1:pos:R:3 gdb_31386=T pbc="F F F"
O        0.08840000       1.38040000       0.24340000
C        0.02060000      -0.00230000      -0.00950000
C       -1.42030000      -0.45140000       0.02030000
C       -2.48810000       0.37970000      -0.00430000
C       -3.86740000      -0.11780000      -0.00170000
O       -4.84840000       0.61910000      -0.02500000
C       -3.96370000      -1.58190000       0.02650000
C       -2.86080000      -2.36120000       0.05190000
N       -1.60260000      -1.81490000       0.04860000
H        0.95690000       1.69570000      -0.02090000
H        0.44860000      -0.25710000      -0.99390000
H        0.58860000      -0.57990000       0.74260000
H       -2.32530000       1.44850000      -0.02660000
H       -4.95030000      -2.02840000       0.02840000
H       -2.89460000      -3.44430000       0.07730000
H       -0.80170000      -2.42270000       0.09600000
