16
Properties=species:S:1:pos:R:3 gdb_50744=T pbc="F F F"
O       -0.01650000      -0.09990000      -0.03490000
C        0.01830000       1.09340000      -0.14370000
C        1.30710000       1.91730000      -0.05910000
O        2.40880000       1.05140000       0.02960000
C        3.63480000       1.69600000      -0.25520000
C        3.65050000       2.16030000      -1.70570000
N        2.47160000       2.98100000      -1.94500000
C        1.32250000       2.92510000      -1.22320000
O        0.35070000       3.62510000      -1.44120000
H       -0.87920000       1.72030000      -0.30790000
H        1.20770000       2.53810000       0.85230000
H        3.79600000       2.55210000       0.41930000
H        4.42380000       0.96120000      -0.07890000
H        4.55100000       2.75210000      -1.90310000
H        3.66480000       1.28700000      -2.37110000
H        2.44760000       3.60960000      -2.73520000
