16
Properties=species:S:1:pos:R:3 gdb_44764=T pbc="F F F"
O        0.02730000       0.05290000      -0.05310000
C        0.01870000       1.24800000      -0.00930000
C       -1.17110000       2.23560000       0.04270000
N       -0.46640000       3.54360000       0.08070000
C        0.59480000       3.31150000      -0.97150000
C        1.19820000       2.24370000       0.01070000
C        0.62280000       3.23680000       1.08380000
C        2.54050000       1.74770000      -0.02560000
C        3.67210000       1.34260000      -0.05580000
H       -1.81030000       2.15240000      -0.84060000
H       -1.78620000       2.08790000       0.93460000
H        0.22910000       2.97960000      -1.94650000
H        1.23350000       4.19000000      -1.07730000
H        1.26510000       4.10590000       1.23570000
H        0.28350000       2.83470000       2.04180000
H        4.66820000       0.97590000      -0.08270000
