20
Properties=species:S:1:pos:R:3 gdb_82229=T pbc="F F F"
O       -0.10650000       1.46830000      -0.08140000
C        0.00490000       0.04820000      -0.03640000
C       -1.39880000      -0.55250000       0.04790000
C       -2.48800000      -0.14670000      -0.88370000
N       -1.83850000      -1.44620000      -1.04030000
C       -0.82730000      -1.62040000      -2.09310000
C       -0.07400000      -0.32630000      -2.53210000
C        0.76860000      -0.51360000      -1.24820000
C        0.48940000      -2.03970000      -1.38120000
H        0.78570000       1.83180000      -0.10180000
H        0.54460000      -0.25370000       0.87540000
H       -1.68810000      -0.89250000       1.03910000
H       -3.51860000      -0.19150000      -0.54190000
H       -2.28580000       0.64950000      -1.59140000
H       -1.24330000      -2.26220000      -2.87230000
H        0.51430000      -0.52410000      -3.43200000
H       -0.61430000       0.61210000      -2.66330000
H        1.80760000      -0.16820000      -1.24350000
H        0.38580000      -2.63650000      -0.47080000
H        1.19400000      -2.52110000      -2.06300000
