14
Properties=species:S:1:pos:R:3 gdb_56726=T pbc="F F F"
O        0.80020000       1.49900000      -0.13830000
C        0.21130000       0.23040000       0.01780000
C        0.39340000      -0.59810000      -1.19450000
N        0.53420000      -1.23530000      -2.14780000
C        0.76470000      -0.46280000       1.27300000
C        1.30400000      -1.83770000       1.24030000
O        2.17900000      -0.71050000       1.17440000
C        0.29770000       0.10550000       2.51310000
C       -0.12940000       0.58400000       3.52860000
H        1.75820000       1.37020000      -0.12870000
H       -0.86140000       0.40330000       0.15020000
H        1.33680000      -2.39480000       2.17380000
H        1.22430000      -2.42350000       0.32810000
H       -0.49410000       1.00730000       4.43240000
