21
Properties=species:S:1:pos:R:3 gdb_75049=T pbc="F F F"
C        0.05600000       1.61180000       0.07180000
C       -0.00090000       0.10790000      -0.05960000
C       -0.01730000      -0.44190000      -1.28750000
C       -0.12090000      -1.83660000      -1.72340000
C       -0.88690000      -2.80120000      -1.19770000
C       -1.74190000      -2.60470000       0.02110000
O       -1.04230000      -2.83560000       1.24460000
C        0.16370000      -2.10910000       1.39460000
C        0.03160000      -0.58360000       1.29200000
H        0.96010000       1.92910000       0.60820000
H        0.04080000       2.10980000      -0.90030000
H       -0.79420000       1.98410000       0.65830000
H        0.07190000       0.25910000      -2.11800000
H        0.44840000      -2.07150000      -2.62250000
H       -0.86480000      -3.79290000      -1.64140000
H       -2.16520000      -1.58970000       0.01250000
H       -2.57230000      -3.31610000       0.03760000
H        0.50000000      -2.35640000       2.40650000
H        0.93360000      -2.46470000       0.69700000
H        0.88840000      -0.15560000       1.83430000
H       -0.84660000      -0.26870000       1.87470000
