19
Properties=species:S:1:pos:R:3 gdb_110496=T pbc="F F F"
C        0.02050000       1.29210000      -0.24570000
O       -0.06030000       0.03370000       0.38510000
C       -1.30680000      -0.58810000       0.22410000
C       -1.58610000      -1.39890000      -1.06800000
C       -0.57070000      -2.50720000      -0.58350000
C       -1.15630000      -3.84670000      -1.00160000
C       -2.46540000      -3.70390000      -0.78880000
C       -2.59840000      -2.28590000      -0.25290000
C       -1.36820000      -2.04480000       0.69950000
H        1.00890000       1.70360000      -0.02750000
H       -0.09920000       1.21620000      -1.33690000
H       -0.74440000       1.98690000       0.13560000
H       -2.11800000       0.07600000       0.55970000
H       -1.72100000      -1.04100000      -2.09210000
H        0.49870000      -2.32200000      -0.64470000
H       -0.60550000      -4.69680000      -1.37880000
H       -3.27570000      -4.40210000      -0.94450000
H       -3.57860000      -1.88850000       0.01400000
H       -1.24510000      -2.42320000       1.71720000
