21
Properties=species:S:1:pos:R:3 gdb_99941=T pbc="F F F"
C       -0.09500000       1.53210000       0.16040000
C        0.01820000       0.01440000      -0.01530000
C        0.74590000      -0.47040000      -1.30540000
C        0.00270000      -0.00410000      -2.58110000
C        2.21220000       0.02320000      -1.34650000
C        0.75410000      -1.93600000      -1.29400000
C        0.76770000      -3.14510000      -1.29610000
C        0.76060000      -4.58340000      -1.26590000
O        1.33380000      -5.29330000      -2.06140000
H        0.88490000       2.01550000       0.21390000
H       -0.65850000       2.00070000      -0.65180000
H       -0.62040000       1.75830000       1.09330000
H        0.54390000      -0.41180000       0.84690000
H       -0.98490000      -0.42730000      -0.00950000
H        0.02510000       1.08650000      -2.65640000
H        0.47760000      -0.41650000      -3.47500000
H       -1.04140000      -0.32950000      -2.56890000
H        2.75510000      -0.28320000      -0.44780000
H        2.73210000      -0.38920000      -2.21500000
H        2.24520000       1.11390000      -1.41610000
H        0.17100000      -5.01570000      -0.43120000
