21
Properties=species:S:1:pos:R:3 gdb_119194=T pbc="F F F"
C        0.03770000       1.61720000       0.00980000
C       -0.12260000       0.10270000       0.16310000
C        0.92730000      -0.50320000       1.10520000
C        0.84280000      -2.02060000       1.23810000
C        1.31680000      -2.69710000       2.49510000
N       -0.08850000      -2.71340000       2.14560000
C       -1.02240000      -1.95050000       2.96170000
C        1.03600000      -2.72640000      -0.01830000
N        1.21480000      -3.26080000      -1.02800000
H        1.02120000       1.87120000      -0.40060000
H       -0.72000000       2.02800000      -0.66380000
H       -0.06090000       2.12890000       0.97380000
H       -1.12720000      -0.12710000       0.53840000
H       -0.04480000      -0.37950000      -0.81820000
H        1.93160000      -0.25610000       0.73850000
H        0.84840000      -0.05050000       2.09850000
H        1.83820000      -3.64890000       2.44640000
H        1.64670000      -2.02740000       3.28970000
H       -0.61260000      -1.02290000       3.38770000
H       -1.90560000      -1.70360000       2.36610000
H       -1.34060000      -2.58900000       3.79120000
