16
Properties=species:S:1:pos:R:3 gdb_33298=T pbc="F F F"
C        0.09780000      -3.75750000       0.00500000
C        0.06400000      -2.54980000      -0.00340000
C        0.02360000      -1.19210000      -0.01170000
C       -0.00280000       0.02030000      -0.02770000
C       -0.08760000       1.43610000      -0.02140000
C        0.28600000       2.28680000      -1.18270000
N        1.14260000       2.38070000       0.00090000
C        0.38600000       3.24920000       0.97270000
C       -0.81690000       2.27680000       1.03620000
H        0.13110000      -4.81860000       0.01030000
H        0.76700000       1.78960000      -2.01860000
H       -0.35240000       3.12820000      -1.45070000
H        0.93980000       3.32510000       1.90930000
H        0.19360000       4.25560000       0.58680000
H       -1.80430000       2.64880000       0.74960000
H       -0.89350000       1.76380000       1.99520000
