20
Properties=species:S:1:pos:R:3 gdb_63004=T pbc="F F F"
C        0.08770000       1.52120000       0.02140000
C       -0.01210000      -0.00960000      -0.00260000
C       -1.47530000      -0.48070000       0.02960000
C        0.67730000      -0.62680000      -1.23700000
N        2.10450000      -0.30890000      -1.40860000
C        1.71560000      -1.60330000      -0.80980000
C        1.74450000      -1.60200000       0.70670000
O        2.11970000      -0.35310000       1.29090000
C        0.72750000      -0.65060000       1.18560000
H        1.13580000       1.82500000      -0.00180000
H       -0.42180000       1.95920000      -0.84400000
H       -0.37720000       1.93120000       0.92470000
H       -2.02780000      -0.09120000      -0.83200000
H       -1.54490000      -1.57400000       0.00740000
H       -1.98060000      -0.12930000       0.93520000
H        0.07210000      -0.78560000      -2.12610000
H        2.36230000      -0.46170000      -2.38130000
H        1.91420000      -2.52600000      -1.34370000
H        2.04850000      -2.49230000       1.25050000
H        0.20490000      -0.75320000       2.13630000
