25
Properties=species:S:1:pos:R:3 gdb_112703=T pbc="F F F"
C        0.47310000       1.60230000      -0.24930000
C        0.08220000       0.13930000      -0.00000000
C        0.50240000      -0.77490000      -1.19350000
C        1.53870000      -1.79060000      -0.64550000
C        2.63130000      -2.13070000      -1.64620000
O        3.48690000      -3.10270000      -1.06060000
C        2.03630000      -1.15400000       0.66150000
C        0.77030000      -0.50570000       1.24210000
C        1.00620000       0.40880000       2.44370000
H        1.55700000       1.71760000      -0.36640000
H        0.00570000       1.96860000      -1.16970000
H        0.15360000       2.25740000       0.56690000
H       -1.00500000       0.10850000       0.13360000
H       -0.35450000      -1.28330000      -1.64500000
H        0.95240000      -0.16650000      -1.98810000
H        1.02750000      -2.72850000      -0.39290000
H        2.17990000      -2.50960000      -2.57810000
H        3.18880000      -1.21340000      -1.90300000
H        4.18150000      -3.31210000      -1.69160000
H        2.50160000      -1.87720000       1.33570000
H        2.79060000      -0.38390000       0.44390000
H        0.11670000      -1.32560000       1.57350000
H        1.69740000       1.22360000       2.20550000
H        0.07160000       0.85710000       2.79920000
H        1.43850000      -0.15490000       3.27720000
