14
Properties=species:S:1:pos:R:3 gdb_42796=T pbc="F F F"
O        0.04440000       0.00100000       0.05710000
C        0.00240000       1.18850000       0.05960000
C       -1.08160000       2.28770000       0.01400000
C       -1.31200000       2.85160000       1.41680000
N       -0.00580000       3.08820000       2.02800000
C        1.19280000       2.91630000       1.38280000
O        2.27440000       3.14530000       1.87320000
C        0.98300000       2.37340000      -0.04180000
O       -0.10190000       3.12650000      -0.65730000
H       -2.00230000       2.14310000      -0.55370000
H       -1.88050000       3.78760000       1.34600000
H       -1.89760000       2.13650000       2.00840000
H        0.04360000       3.52420000       2.93700000
H        1.90470000       2.34230000      -0.61970000
