17
Properties=species:S:1:pos:R:3 gdb_37028=T pbc="F F F"
C       -0.04430000       1.47640000       0.21160000
C        1.28660000       0.82730000      -0.08070000
C        1.76270000      -0.00250000       1.10730000
O        0.47750000      -0.69180000       1.17940000
C        0.05950000      -0.02300000      -0.02390000
C       -0.33650000      -0.72280000      -1.24690000
C        0.28270000      -0.35810000      -2.37530000
C        1.34220000       0.71640000      -2.44750000
O        2.03990000       1.00190000      -1.22350000
H       -0.28500000       1.83410000       1.20890000
H       -0.47730000       2.04460000      -0.60450000
H        2.56420000      -0.69500000       0.82980000
H        2.00920000       0.51570000       2.04020000
H       -1.08390000      -1.51000000      -1.22300000
H        0.01890000      -0.80960000      -3.32740000
H        2.11780000       0.42940000      -3.16600000
H        0.89450000       1.64990000      -2.82760000
