20
Properties=species:S:1:pos:R:3 gdb_126514=T pbc="F F F"
C        0.00130000       1.63330000      -0.05810000
C        0.02820000       0.10330000      -0.06610000
C       -1.37450000      -0.52380000       0.06440000
C       -1.38080000      -2.02260000       0.04850000
C       -1.30900000      -2.88310000       1.13410000
N       -1.17000000      -2.65330000       2.50880000
N       -1.33500000      -4.14430000       0.63330000
N       -1.43000000      -4.17900000      -0.71950000
C       -1.44770000      -2.89850000      -1.06390000
H        1.00840000       2.05170000      -0.15080000
H       -0.59870000       2.02330000      -0.88800000
H       -0.43460000       2.01890000       0.87080000
H        0.49170000      -0.25880000      -0.99160000
H        0.66300000      -0.26450000       0.75000000
H       -1.84130000      -0.15720000       0.99080000
H       -2.00670000      -0.14760000      -0.75000000
H       -1.14000000      -1.66290000       2.71410000
H       -1.91020000      -3.07540000       3.05940000
H       -1.24970000      -5.00500000       1.14610000
H       -1.52550000      -2.62890000      -2.10850000
