22
Properties=species:S:1:pos:R:3 gdb_7363=T pbc="F F F"
C       -0.12390000       1.57860000       0.03720000
C        0.02720000       0.05620000      -0.03980000
C        0.73440000      -0.52440000       1.18980000
C        0.83490000      -2.05890000       1.20990000
C        1.70170000      -2.62070000       0.06200000
C        1.43840000      -2.54540000       2.53180000
C        0.93110000      -3.87500000       3.06300000
O        2.28530000      -1.90840000       3.11590000
H        0.85310000       2.06880000       0.10970000
H       -0.63160000       1.97540000      -0.84750000
H       -0.70590000       1.87470000       0.91720000
H       -0.96500000      -0.40440000      -0.14340000
H        0.57960000      -0.20330000      -0.95070000
H        1.74380000      -0.10730000       1.27910000
H        0.20020000      -0.19830000       2.09170000
H       -0.17100000      -2.49110000       1.11620000
H        2.70990000      -2.19610000       0.10530000
H        1.79260000      -3.71020000       0.11960000
H        1.26790000      -2.37980000      -0.91170000
H        0.91200000      -4.63700000       2.27680000
H        1.55100000      -4.20900000       3.89600000
H       -0.10280000      -3.75370000       3.40890000
