14
Properties=species:S:1:pos:R:3 gdb_7207=T pbc="F F F"
C       -0.02630000       1.46690000      -0.05070000
C        0.03060000       0.01720000      -0.06140000
C        0.09680000      -1.18750000      -0.07220000
C        0.08430000      -2.62290000      -0.09260000
O       -0.94370000      -3.27670000      -0.07180000
C        1.43220000      -3.32780000      -0.13130000
N        1.29210000      -4.67950000      -0.25660000
N        2.49120000      -2.61250000      -0.06650000
H        0.95150000       1.90140000       0.18070000
H       -0.34140000       1.84460000      -1.02980000
H       -0.74860000       1.82650000       0.69000000
H        0.35970000      -5.04160000      -0.12180000
H        2.07100000      -5.28380000      -0.05910000
H        3.33580000      -3.18910000      -0.09110000
