12
Properties=species:S:1:pos:R:3 gdb_130681=T pbc="F F F"
O       -0.00620000      -0.01870000       0.00370000
C       -0.03000000       1.17550000       0.00980000
N       -1.15290000       2.01660000       0.02910000
C       -0.70410000       3.32140000       0.03030000
C        0.66040000       3.29270000       0.01100000
O        1.10110000       1.98640000      -0.00200000
C        1.08110000       4.62930000       0.01180000
N        0.01140000       5.43340000       0.03090000
N       -1.08380000       4.61190000       0.04190000
H       -2.08600000       1.64530000       0.04300000
H        2.07170000       5.05420000      -0.00000000
H       -2.00000000       5.02300000       0.05690000
