10
Properties=species:S:1:pos:R:3 gdb_23848=T pbc="F F F"
F       -0.00720000       0.09910000       0.00430000
C       -0.03190000       1.41860000       0.01100000
N       -1.17050000       1.98980000       0.02850000
O       -1.13030000       3.37400000       0.03500000
C        0.07830000       4.09800000       0.02340000
N        0.04840000       5.35880000       0.03050000
N        1.28520000       3.40060000       0.00410000
C        1.23620000       2.12270000      -0.00180000
H       -0.91360000       5.69860000       0.04480000
H        2.15970000       1.54580000      -0.01680000
