17
Properties=species:S:1:pos:R:3 gdb_44969=T pbc="F F F"
O       -0.01900000       0.01090000      -0.36710000
C        0.01300000       1.17360000      -0.09760000
O       -1.11070000       1.92060000       0.12240000
C       -0.71580000       3.28250000       0.45390000
C        0.61070000       3.45030000      -0.30090000
C        1.23030000       2.11080000       0.09380000
O        1.63290000       2.14450000       1.45920000
C        0.55010000       2.29190000       2.38030000
C       -0.45810000       3.37870000       1.96210000
H       -1.52410000       3.93420000       0.12110000
H        0.44380000       3.51360000      -1.38040000
H        1.20340000       4.30340000       0.03260000
H        2.09060000       1.77860000      -0.48500000
H        0.02550000       1.33210000       2.48890000
H        1.00950000       2.52780000       3.34280000
H       -0.07250000       4.37930000       2.18610000
H       -1.38660000       3.24370000       2.52590000
