17
Properties=species:S:1:pos:R:3 gdb_44811=T pbc="F F F"
O        0.19770000       0.00960000       0.48630000
C        0.12720000       1.18540000       0.25540000
N       -0.96920000       2.05570000       0.12490000
C       -0.10070000       3.21880000      -0.08680000
C        0.87180000       3.38710000       1.03690000
C        1.12340000       2.30880000      -0.02750000
C        2.34700000       2.22050000      -0.85880000
C        3.14810000       0.96620000      -0.84990000
N        2.38510000       1.35320000      -2.04910000
H       -1.75870000       2.04710000       0.76160000
H       -0.34740000       3.96580000      -0.82900000
H        1.54830000       4.23570000       0.97270000
H        0.59180000       3.10720000       2.04860000
H        2.86900000       3.16540000      -0.99790000
H        4.22800000       1.01550000      -0.95660000
H        2.77390000       0.14490000      -0.24610000
H        1.53400000       0.79720000      -2.10000000
