18
Properties=species:S:1:pos:R:3 gdb_84316=T pbc="F F F"
C        0.23650000       1.62660000      -0.16110000
C        0.00880000       0.11150000       0.01460000
C        0.37290000      -0.63910000      -1.24360000
C        1.41130000      -1.47370000      -1.33670000
C        2.36070000      -1.65010000      -0.21210000
O        3.51490000      -1.97930000      -0.37600000
N        1.83300000      -1.39990000       1.06750000
C        2.07100000      -0.12080000       1.72460000
C        0.70160000      -0.49470000       1.23990000
H        1.28880000       1.84950000      -0.35880000
H       -0.34820000       2.01140000      -1.00300000
H       -0.06680000       2.16810000       0.73990000
H       -1.06930000      -0.02700000       0.16810000
H       -0.24090000      -0.43400000      -2.11890000
H        1.68710000      -1.95430000      -2.26870000
H        2.29860000      -0.16370000       2.78610000
H        2.63740000       0.62100000       1.16790000
H        0.01160000      -0.84340000       2.00590000
