23
Properties=species:S:1:pos:R:3 gdb_113860=T pbc="F F F"
O       -0.15530000       1.43920000      -0.73560000
C        0.01350000       0.20780000      -0.04150000
C       -1.33700000      -0.44910000       0.06510000
C       -1.88200000      -1.28210000      -1.06750000
C       -1.51370000      -1.94440000       0.23990000
C       -0.36900000      -2.91710000       0.33830000
C        0.25660000      -3.22080000       1.73300000
C        0.37800000      -4.71010000       1.31370000
C       -0.67260000      -4.44000000       0.20360000
H        0.69020000       1.89780000      -0.73530000
H        0.71950000      -0.44780000      -0.57370000
H        0.42590000       0.38030000       0.96610000
H       -2.05950000       0.17060000       0.58940000
H       -2.92840000      -1.18290000      -1.33400000
H       -1.22370000      -1.45400000      -1.91400000
H       -2.35420000      -2.21920000       0.87500000
H        0.42410000      -2.64750000      -0.36710000
H        1.16790000      -2.68570000       2.01270000
H       -0.48180000      -3.08660000       2.53050000
H        1.36300000      -4.93350000       0.89300000
H        0.14300000      -5.47020000       2.06240000
H       -1.68740000      -4.66830000       0.54620000
H       -0.52500000      -4.90600000      -0.77390000
