15
Properties=species:S:1:pos:R:3 gdb_125325=T pbc="F F F"
C       -0.00270000       1.49790000       0.11710000
C        0.02810000       0.01470000      -0.04530000
C       -0.06860000      -0.75550000      -1.17550000
N        0.02160000      -2.03590000      -0.72630000
N        0.16760000      -2.05620000       0.62260000
N        0.17160000      -0.82940000       1.03100000
C       -0.02440000      -3.23520000      -1.51500000
N        0.09360000      -4.34510000      -0.75990000
O       -0.15590000      -3.17130000      -2.71350000
H        0.92230000       1.86020000       0.57660000
H       -0.12300000       1.99380000      -0.84880000
H       -0.82960000       1.80330000       0.76580000
H       -0.18860000      -0.53580000      -2.22160000
H        0.19850000      -4.27140000       0.23950000
H        0.07210000      -5.23670000      -1.22170000
