17
Properties=species:S:1:pos:R:3 gdb_33017=T pbc="F F F"
C        0.00150000       1.41250000      -0.02030000
O       -0.00690000       0.00450000       0.01360000
C        0.63030000      -0.57370000      -1.09750000
C        0.58590000      -2.07760000      -0.99270000
C       -0.01710000      -2.74150000       0.07900000
N       -0.04920000      -4.07350000       0.15910000
C        0.52710000      -4.73980000      -0.84210000
C        1.12870000      -4.08080000      -1.91140000
N        1.16170000      -2.75140000      -1.99290000
H        1.02720000       1.81280000      -0.02500000
H       -0.52320000       1.80080000      -0.90710000
H       -0.51220000       1.76290000       0.87760000
H        0.14680000      -0.26490000      -2.04010000
H        1.68270000      -0.24940000      -1.16750000
H       -0.47900000      -2.17770000       0.88110000
H        0.50970000      -5.82550000      -0.79240000
H        1.59470000      -4.63750000      -2.72070000
