19
Properties=species:S:1:pos:R:3 gdb_116360=T pbc="F F F"
C        0.03580000       1.35610000       0.04660000
O        0.01880000      -0.06280000      -0.01700000
C        0.69670000      -0.58650000      -1.11320000
O        2.06930000      -0.30800000      -0.99390000
C        2.82010000      -1.05990000      -1.94150000
C        2.68770000      -2.54900000      -1.63630000
N        1.31800000      -2.98160000      -1.39580000
C        0.43560000      -2.09440000      -1.15720000
N       -0.89380000      -2.42290000      -1.00050000
H        1.05330000       1.73530000       0.18350000
H       -0.39080000       1.79580000      -0.86680000
H       -0.57870000       1.63980000       0.90310000
H        0.31240000      -0.12670000      -2.04880000
H        2.46320000      -0.84160000      -2.96180000
H        3.85530000      -0.71710000      -1.86260000
H        3.10170000      -3.13410000      -2.46770000
H        3.29030000      -2.79970000      -0.75210000
H       -1.05390000      -3.41080000      -0.86130000
H       -1.40400000      -1.81620000      -0.37540000
