16
Properties=species:S:1:pos:R:3 gdb_33889=T pbc="F F F"
N        0.04640000      -1.09630000      -0.03990000
C        0.05280000       0.05940000       0.00010000
C        0.01930000       1.49110000       0.08390000
O        0.35560000       2.23070000      -1.10300000
C        1.19020000       2.38650000       0.05080000
C        0.75590000       3.46880000       1.06070000
C       -0.73180000       3.70510000       0.67830000
C       -0.88320000       2.22200000       1.11240000
C        0.19720000       2.54640000       2.20380000
H        2.21550000       2.04860000      -0.05040000
H        1.45140000       4.28400000       1.25290000
H       -1.22430000       4.37370000       1.38550000
H       -0.96970000       3.97370000      -0.34860000
H       -1.84330000       1.76600000       1.34550000
H        0.82860000       1.72570000       2.55570000
H       -0.20440000       3.10670000       3.05100000
