23
Properties=species:S:1:pos:R:3 gdb_59993=T pbc="F F F"
C       -0.18480000       1.52890000       0.13760000
C       -0.01680000       0.01030000      -0.01530000
C       -1.38360000      -0.68660000      -0.02720000
C        0.78870000      -0.36510000      -1.27130000
C        2.26000000       0.08150000      -1.24740000
O        2.94130000      -0.40140000      -0.10090000
C        2.97880000      -0.37490000      -2.50950000
C        4.42670000      -0.59510000      -2.53390000
O        3.51570000      -1.70350000      -2.43070000
H        0.77640000       2.04320000       0.22980000
H       -0.71410000       1.95530000      -0.72390000
H       -0.76820000       1.76660000       1.03310000
H        0.55030000      -0.35660000       0.84860000
H       -1.98650000      -0.35990000      -0.88340000
H       -1.27740000      -1.77470000      -0.09270000
H       -1.95070000      -0.45890000       0.88150000
H        0.77100000      -1.45610000      -1.40070000
H        0.30390000       0.05980000      -2.16240000
H        2.31560000       1.17580000      -1.19460000
H        3.13650000      -1.33030000      -0.28970000
H        2.47110000      -0.15320000      -3.44880000
H        4.96700000      -0.53230000      -3.47640000
H        5.00390000      -0.39370000      -1.63520000
