17
Properties=species:S:1:pos:R:3 gdb_7256=T pbc="F F F"
C        0.15830000       1.48470000      -0.25170000
C       -0.00200000      -0.00640000       0.05360000
C        0.67070000      -0.39080000       1.38780000
C       -1.48780000      -0.37660000       0.12570000
O       -2.35200000       0.39110000       0.46050000
N       -1.73910000      -1.72270000      -0.20210000
C       -2.95160000      -2.40700000      -0.16150000
O       -4.01540000      -1.96450000       0.16940000
H        1.21680000       1.76070000      -0.25470000
H       -0.26690000       1.73940000      -1.22650000
H       -0.36060000       2.08210000       0.50150000
H        0.46580000      -0.59220000      -0.74950000
H        0.21910000       0.16580000       2.21480000
H        0.56950000      -1.45870000       1.60570000
H        1.73760000      -0.15130000       1.35650000
H       -0.94500000      -2.27080000      -0.49900000
H       -2.80250000      -3.45780000      -0.48730000
