19
Properties=species:S:1:pos:R:3 gdb_88178=T pbc="F F F"
O        0.03860000       1.31880000      -0.06590000
C        0.02650000      -0.07440000       0.05790000
C       -0.57270000      -0.70980000       1.28650000
C       -1.31630000      -0.73250000      -0.03060000
C       -2.59070000       0.09030000      -0.24660000
O       -3.26530000      -0.54860000      -1.32760000
C       -3.00820000      -1.93820000      -1.16760000
C       -1.50470000      -2.01040000      -0.86430000
O       -0.72080000      -2.02520000      -2.04780000
H        0.73130000       1.66410000       0.50670000
H        0.85150000      -0.58890000      -0.43270000
H       -0.14010000      -1.63210000       1.66240000
H       -0.95390000      -0.03800000       2.05070000
H       -3.22370000       0.08080000       0.65550000
H       -2.39050000       1.12620000      -0.52600000
H       -3.59680000      -2.35490000      -0.33280000
H       -3.27530000      -2.45400000      -2.09230000
H       -1.22810000      -2.91690000      -0.31970000
H       -0.96660000      -1.24290000      -2.55620000
