20
Properties=species:S:1:pos:R:3 gdb_98162=T pbc="F F F"
C       -0.65920000       1.57030000      -0.18720000
N       -1.03650000       0.17210000      -0.23930000
C       -0.23790000      -0.81610000       0.22950000
O        0.85720000      -0.62690000       0.73190000
C       -0.78360000      -2.27080000       0.10320000
C        0.23640000      -3.06790000      -0.74670000
C       -0.84730000      -2.85920000       1.53430000
C       -2.10660000      -2.33490000      -0.51940000
C       -3.19480000      -2.40090000      -1.03030000
H       -0.61130000       2.00590000      -1.19140000
H       -1.36960000       2.15100000       0.41170000
H        0.32720000       1.62710000       0.27440000
H       -1.92470000      -0.09180000      -0.63660000
H        1.22730000      -2.96320000      -0.30070000
H       -0.04180000      -4.12460000      -0.77680000
H        0.27110000      -2.69160000      -1.77280000
H       -1.58870000      -2.33340000       2.14210000
H       -1.12140000      -3.91670000       1.49550000
H        0.13190000      -2.75230000       2.00490000
H       -4.15490000      -2.47170000      -1.47930000
