18
Properties=species:S:1:pos:R:3 gdb_108414=T pbc="F F F"
O        0.21290000       1.35350000      -0.37680000
C        0.11430000       0.11060000       0.30370000
C       -1.22130000      -0.54120000       0.09740000
C       -2.56320000      -0.17580000       0.76880000
C       -2.97100000      -1.68780000       0.73020000
C       -1.62810000      -2.00950000       0.05420000
N       -1.47150000      -1.23810000      -1.15280000
C       -2.44340000      -0.97050000      -2.10410000
O       -3.24330000      -1.77080000      -2.52030000
H        0.18160000       1.16370000      -1.32080000
H        0.90740000      -0.58610000      -0.00460000
H        0.25800000       0.33770000       1.36500000
H       -2.42670000       0.19020000       1.78870000
H       -3.19270000       0.53410000       0.22710000
H       -3.04650000      -2.11920000       1.72990000
H       -3.85620000      -1.95710000       0.15150000
H       -1.02100000      -2.89850000       0.18320000
H       -2.35430000       0.06110000      -2.50040000
