16
Properties=species:S:1:pos:R:3 gdb_44406=T pbc="F F F"
O       -0.23160000       0.04910000      -0.40030000
C       -0.12010000       1.20490000      -0.13460000
N       -1.08560000       2.25660000      -0.03930000
C       -0.17080000       3.04910000       0.80740000
C        0.85570000       4.26930000       0.70450000
C        1.91640000       3.13510000       1.15290000
C        0.98410000       2.28370000       0.17980000
C        1.22160000       3.06660000      -1.13590000
C        1.14100000       4.34810000      -0.78230000
H       -2.06360000       2.07770000       0.15550000
H       -0.32780000       2.81230000       1.86510000
H        0.72960000       5.18090000       1.28870000
H        2.94570000       3.29720000       0.83070000
H        1.86320000       2.85930000       2.20890000
H        1.41300000       2.60070000      -2.09150000
H        1.23360000       5.24720000      -1.37390000
