17
Properties=species:S:1:pos:R:3 gdb_38305=T pbc="F F F"
C       -0.06990000       1.59880000       0.08610000
C        1.46200000       1.39880000       0.03080000
O        1.26900000       0.14750000       0.75590000
C        0.00180000       0.05540000       0.03860000
C        0.36570000      -0.48560000      -1.42300000
O        1.79040000      -0.43220000      -1.48450000
C        1.96240000       0.98350000      -1.43150000
C        0.97140000       1.43580000      -2.51420000
C       -0.00890000       0.53380000      -2.50900000
H       -0.37280000       1.93380000       1.07990000
H       -0.59020000       2.15990000      -0.68540000
H        2.13620000       2.09000000       0.54030000
H       -0.74010000      -0.55640000       0.55560000
H        0.03240000      -1.51180000      -1.58260000
H        3.01180000       1.22950000      -1.59840000
H        1.04380000       2.34740000      -3.09160000
H       -0.92670000       0.53440000      -3.08110000
