20
Properties=species:S:1:pos:R:3 gdb_69377=T pbc="F F F"
C        0.17830000       1.46220000      -0.09320000
C       -0.00870000      -0.02490000      -0.06090000
C       -0.86130000      -0.73150000       0.91630000
N        0.60280000      -0.91060000       1.01900000
C        0.95530000      -1.90520000      -0.06110000
C        0.41240000      -0.98000000      -1.17980000
C        2.43690000      -2.17680000      -0.06830000
C        3.16170000      -2.56040000      -1.28430000
O        3.29100000      -1.24610000      -0.73710000
H        1.18270000       1.72170000      -0.44360000
H       -0.54880000       1.93060000      -0.76740000
H        0.04300000       1.89260000       0.90340000
H       -1.27260000      -0.15230000       1.73780000
H       -1.47550000      -1.57720000       0.60900000
H        0.42890000      -2.85950000       0.07370000
H       -0.38090000      -1.36510000      -1.82640000
H        1.22200000      -0.57390000      -1.78840000
H        2.82430000      -2.51620000       0.89310000
H        4.04810000      -3.18830000      -1.21140000
H        2.62940000      -2.61800000      -2.23330000
