17
Properties=species:S:1:pos:R:3 gdb_67572=T pbc="F F F"
O       -0.09090000       1.36930000      -0.00550000
C       -0.05240000      -0.00620000      -0.02980000
C       -1.35910000      -0.74540000       0.15090000
C       -1.81750000      -1.62540000      -0.98700000
C       -0.88130000      -2.18350000       0.05980000
C        0.61430000      -1.99740000      -0.15670000
C        0.85350000      -0.76140000      -1.06320000
O        2.06030000      -0.37230000      -0.31120000
C        1.10040000      -0.79950000       0.71750000
H        0.82710000       1.65730000      -0.11680000
H       -2.05920000      -0.40200000       0.90240000
H       -2.84630000      -1.96810000      -0.94790000
H       -1.45500000      -1.43820000      -1.99240000
H       -1.23280000      -2.94730000       0.74280000
H        1.27490000      -2.85390000      -0.27480000
H        0.89810000      -0.68650000      -2.15020000
H        1.42490000      -0.77040000       1.75910000
