18
Properties=species:S:1:pos:R:3 gdb_62728=T pbc="F F F"
C       -0.09570000       1.56480000       0.04060000
C        0.04730000       0.06280000       0.02730000
O       -1.07060000      -0.61760000      -0.48870000
C        1.36890000      -0.66370000      -0.24040000
N        2.60470000       0.05810000      -0.04820000
C        2.61170000       0.39390000       1.17880000
O        1.57770000       0.01510000       1.97310000
C        0.68950000      -0.73530000       1.13330000
C        0.05720000      -1.90290000       1.82910000
H        0.80270000       2.06780000       0.39910000
H       -0.29360000       1.92770000      -0.97480000
H       -0.93730000       1.85660000       0.67600000
H       -1.09350000      -0.46210000      -1.44010000
H        1.36870000      -1.47170000      -0.96380000
H        3.38270000       0.96690000       1.67940000
H       -0.52650000      -1.56830000       2.69310000
H       -0.61450000      -2.41810000       1.14190000
H        0.82070000      -2.60330000       2.18090000
