16
Properties=species:S:1:pos:R:3 gdb_71869=T pbc="F F F"
O       -0.09900000       1.38190000      -0.04160000
C       -0.00530000       0.00910000      -0.05370000
C        0.78200000      -0.82450000      -1.06260000
C       -0.21610000      -1.99580000      -0.74530000
N        0.26180000      -2.83640000       0.34480000
C        0.39530000      -2.07770000       1.50270000
O        0.98510000      -2.40280000       2.50800000
C       -0.34940000      -0.80130000       1.22420000
C       -1.14880000      -0.96010000      -0.04790000
H        0.65490000       1.73860000       0.44170000
H        0.62690000      -0.42920000      -2.07010000
H        1.84670000      -1.01790000      -0.89240000
H       -0.59870000      -2.57300000      -1.58410000
H        0.95720000      -3.54950000       0.17620000
H       -0.73300000      -0.21480000       2.04810000
H       -2.21760000      -0.83240000      -0.14930000
