16
Properties=species:S:1:pos:R:3 gdb_54485=T pbc="F F F"
N        0.07780000       0.99610000       0.76460000
C       -0.01870000       0.02260000      -0.18510000
O        0.80710000      -0.17610000      -1.05520000
C       -1.28010000      -0.79840000      -0.11300000
C       -2.61840000      -0.14850000      -0.08830000
N       -2.07820000      -0.76430000       1.14780000
C       -2.49180000      -2.13470000       1.26520000
N       -2.07540000      -2.98120000       0.41660000
C       -1.22700000      -2.26270000      -0.55180000
H        0.94920000       1.49850000       0.82310000
H       -0.49730000       0.91950000       1.58980000
H       -2.68630000       0.93410000      -0.06030000
H       -3.43940000      -0.66090000      -0.58350000
H       -3.13360000      -2.39220000       2.10250000
H       -1.59600000      -2.43500000      -1.56710000
H       -0.20170000      -2.64320000      -0.51500000
