16
Properties=species:S:1:pos:R:3 gdb_65846=T pbc="F F F"
C        0.06960000       1.52020000       0.00450000
C        0.02180000       0.00350000      -0.00640000
O        0.72840000      -0.48410000      -1.12880000
C        1.28360000      -1.73490000      -0.74520000
C        1.44970000      -1.60670000       0.75400000
N        2.12620000      -2.36160000       1.49930000
O        0.73500000      -0.50820000       1.14220000
C       -1.35680000      -0.52040000       0.02330000
C       -2.48120000      -0.94200000       0.03030000
H        1.11320000       1.84110000       0.00710000
H       -0.42890000       1.90560000      -0.88730000
H       -0.43830000       1.90450000       0.89100000
H        0.61350000      -2.57090000      -0.98850000
H        2.23640000      -1.87650000      -1.25660000
H        2.05850000      -2.07190000       2.47590000
H       -3.47530000      -1.31760000       0.03920000
