21
Properties=species:S:1:pos:R:3 gdb_108581=T pbc="F F F"
C        0.16560000       1.51770000       0.17060000
C       -0.10750000       0.03380000      -0.11170000
C        0.66180000      -0.50290000      -1.29830000
C        0.35120000       0.04330000      -2.68480000
O        0.85730000      -0.91750000      -3.61820000
C        0.74560000      -2.21610000      -3.01960000
C        0.93130000      -1.99100000      -1.53310000
C        2.05960000      -1.06060000      -1.15550000
O        3.11710000      -0.75110000      -2.01150000
H        1.23170000       1.69360000       0.34690000
H       -0.13970000       2.14880000      -0.67080000
H       -0.38440000       1.85690000       1.05360000
H        0.14930000      -0.55760000       0.77530000
H       -1.18380000      -0.11770000      -0.27570000
H       -0.73630000       0.17460000      -2.80490000
H        0.84120000       0.99440000      -2.91640000
H       -0.23840000      -2.66230000      -3.22840000
H        1.51570000      -2.84320000      -3.48090000
H        0.58500000      -2.75280000      -0.84280000
H        2.42910000      -1.14910000      -0.13810000
H        2.75100000      -0.68550000      -2.90490000
