18
Properties=species:S:1:pos:R:3 gdb_66008=T pbc="F F F"
O       -0.02720000       1.44380000      -0.26390000
C       -0.03490000       0.05550000      -0.03700000
C        0.87680000      -0.81310000      -0.98720000
N        1.62060000      -1.21100000       0.21100000
C        0.90990000      -0.45610000       1.10670000
O        1.01290000      -0.26890000       2.29130000
C       -1.47240000      -0.38000000       0.05600000
C       -1.87600000      -1.64740000       0.76780000
C       -2.20650000      -0.30410000       1.36920000
H        0.85930000       1.78450000      -0.10290000
H        0.37260000      -1.63670000      -1.50060000
H        1.45640000      -0.21930000      -1.70110000
H        2.39180000      -1.84780000       0.34530000
H       -2.03940000      -0.12030000      -0.83430000
H       -2.67620000      -2.23480000       0.33170000
H       -1.10660000      -2.23850000       1.25250000
H       -1.63520000       0.00400000       2.23690000
H       -3.23690000       0.03180000       1.35490000
