20
Properties=species:S:1:pos:R:3 gdb_88292=T pbc="F F F"
C       -0.83540000       0.93690000       0.42450000
N        0.00220000      -0.24030000       0.20490000
C        1.22210000      -0.08740000      -0.54540000
C        1.28560000      -0.38970000       0.92510000
C        1.81210000       0.67200000       1.84430000
O        1.78500000       1.85750000       1.55620000
C        2.36890000       0.20220000       3.14450000
C        3.53840000       0.98850000       3.72430000
C        2.19470000       1.12220000       4.34770000
H       -0.27710000       1.87100000       0.54970000
H       -1.50370000       1.02850000      -0.43740000
H       -1.45160000       0.77050000       1.31360000
H        1.45630000      -0.87740000      -1.25490000
H        1.53200000       0.91740000      -0.82710000
H        1.47280000      -1.41200000       1.24370000
H        2.34590000      -0.86530000       3.32800000
H        4.30530000       0.42120000       4.23880000
H        3.89010000       1.81280000       3.11460000
H        1.64410000       2.03580000       4.15600000
H        2.00690000       0.64880000       5.30440000
