14
Properties=species:S:1:pos:R:3 gdb_28858=T pbc="F F F"
O       -0.16940000       1.22170000      -0.36330000
C        0.02730000      -0.05140000       0.00410000
N        1.24020000      -0.49660000       0.02260000
C        1.58040000      -1.81330000       0.18110000
C        0.83000000      -2.93420000       0.04440000
C       -0.60870000      -3.00080000      -0.16640000
N       -1.16100000      -4.05410000      -0.65140000
C       -1.40520000      -1.87090000       0.38750000
N       -1.15320000      -0.61890000       0.42620000
H        0.70210000       1.56400000      -0.61070000
H        2.64400000      -1.94880000       0.36470000
H        1.32980000      -3.89630000       0.09750000
H       -2.18100000      -3.96630000      -0.64220000
H       -2.36290000      -2.17440000       0.82340000
