18
Properties=species:S:1:pos:R:3 gdb_65698=T pbc="F F F"
C       -0.15810000       1.63440000       0.19170000
C       -0.00420000       0.13430000       0.02480000
C       -1.22320000      -0.56930000      -0.55680000
C       -1.50220000      -0.14660000      -1.98890000
O       -2.58110000       0.18000000      -2.40740000
C        1.35520000      -0.42020000      -0.30300000
C        0.77410000      -0.64580000       1.08670000
C        1.34550000       0.02900000       2.21700000
N        1.80050000       0.57650000       3.12940000
H        0.72720000       2.08220000       0.64870000
H       -0.31970000       2.11600000      -0.77870000
H       -1.01840000       1.86830000       0.82730000
H       -1.05130000      -1.65500000      -0.57460000
H       -2.12060000      -0.38170000       0.04060000
H       -0.60880000      -0.16970000      -2.65530000
H        1.43520000      -1.29430000      -0.93990000
H        2.18350000       0.27410000      -0.38250000
H        0.41930000      -1.64630000       1.31170000
