16
Properties=species:S:1:pos:R:3 gdb_66745=T pbc="F F F"
C       -0.14950000       1.53450000       0.01680000
C       -0.03080000       0.04690000       0.00750000
C        0.72870000      -0.83390000      -1.06400000
C       -0.40810000      -1.81870000      -0.75780000
C       -0.41910000      -1.82890000       0.74170000
C        0.71300000      -0.84850000       1.07790000
C        1.80050000      -1.10470000       0.01310000
O        2.98500000      -1.25230000       0.02080000
N       -1.28060000      -0.86100000      -0.00780000
H        0.84190000       2.00060000       0.02640000
H       -0.68720000       1.88430000      -0.87050000
H       -0.69870000       1.87240000       0.90160000
H        0.95220000      -0.53780000      -2.08500000
H       -0.81240000      -2.60280000      -1.38480000
H       -0.83250000      -2.62150000       1.35200000
H        0.92150000      -0.56640000       2.10610000
