21
Properties=species:S:1:pos:R:3 gdb_11563=T pbc="F F F"
C       -0.22130000       1.47580000      -0.06240000
C        0.08990000      -0.02320000       0.02370000
C        0.78030000      -0.53760000      -1.24780000
O       -0.00410000      -0.38650000      -2.42010000
C        0.95050000      -0.34980000       1.25180000
N        0.26110000      -0.01430000       2.49370000
C       -0.55980000      -1.06700000       3.08260000
C        0.73880000      -0.67840000       3.69930000
H        0.69280000       2.05590000      -0.24520000
H       -0.93040000       1.69180000      -0.86840000
H       -0.65710000       1.82990000       0.87410000
H       -0.85750000      -0.57100000       0.12010000
H        1.76130000      -0.04450000      -1.36040000
H        0.96920000      -1.61320000      -1.15950000
H       -0.08210000       0.55420000      -2.60370000
H        1.24230000      -1.41700000       1.22600000
H        1.87970000       0.23500000       1.22030000
H       -1.50020000      -0.74810000       3.52280000
H       -0.59830000      -2.02950000       2.57360000
H        1.56330000      -1.38350000       3.60080000
H        0.76620000      -0.06940000       4.59850000
