15
Properties=species:S:1:pos:R:3 gdb_133791=T pbc="F F F"
C        0.53140000       1.05210000       0.07910000
N       -0.53700000       0.13860000      -0.32620000
C       -0.17470000      -0.73970000      -1.41340000
C        0.76620000      -1.88200000      -1.03520000
O        1.04370000      -2.18600000       0.09360000
C        1.35500000      -2.68830000      -2.22530000
F        0.36800000      -3.08130000      -3.04650000
F        2.18150000      -1.89860000      -2.93010000
F        2.02580000      -3.75520000      -1.82310000
H        1.46980000       0.55720000       0.37300000
H        0.75010000       1.73920000      -0.74600000
H        0.18360000       1.65170000       0.92440000
H       -0.81430000      -0.42520000       0.47100000
H       -1.07110000      -1.20840000      -1.84580000
H        0.27820000      -0.16530000      -2.23100000
