21
Properties=species:S:1:pos:R:3 gdb_117284=T pbc="F F F"
C        0.14280000       1.56470000      -0.06720000
C        0.23330000       0.03750000      -0.01850000
C       -1.14330000      -0.62670000      -0.00720000
C       -1.10170000      -2.14110000       0.04090000
N       -0.01070000      -2.78410000       0.06890000
N       -2.40230000      -2.70600000       0.04950000
C       -2.73290000      -4.04650000       0.08990000
C       -4.23000000      -4.31180000       0.08830000
O       -1.90710000      -4.93770000       0.12390000
H        1.13900000       2.01700000      -0.07460000
H       -0.38300000       1.90740000      -0.96600000
H       -0.39520000       1.96300000       0.80080000
H        0.80150000      -0.33920000      -0.87450000
H        0.78950000      -0.28440000       0.86720000
H       -1.72750000      -0.26730000       0.85350000
H       -1.71540000      -0.32240000      -0.89680000
H       -0.18730000      -3.78880000       0.09930000
H       -3.17020000      -2.05260000       0.02350000
H       -4.69900000      -3.90040000      -0.81180000
H       -4.39220000      -5.38840000       0.11880000
H       -4.70970000      -3.84880000       0.95710000
