17
Properties=species:S:1:pos:R:3 gdb_87069=T pbc="F F F"
O        0.19640000       1.29850000       0.24820000
C        0.06050000      -0.07210000       0.10440000
C       -0.46700000      -0.79800000       1.28950000
C       -1.34430000      -0.70100000       0.03760000
C       -2.45060000       0.21640000       0.06170000
N       -3.35550000       0.93710000       0.01830000
C       -1.53870000      -1.93570000      -0.80410000
C       -2.86140000      -2.59490000      -0.93320000
N       -2.25820000      -1.89070000      -2.08130000
H        0.01310000       1.72260000      -0.59780000
H        0.80990000      -0.56750000      -0.51320000
H       -0.07320000      -1.77870000       1.53070000
H       -0.75600000      -0.18730000       2.13610000
H       -0.64750000      -2.56060000      -0.83010000
H       -2.92130000      -3.67450000      -1.03470000
H       -3.70670000      -2.13230000      -0.43160000
H       -2.71050000      -0.98540000      -2.19710000
