21
Properties=species:S:1:pos:R:3 gdb_116779=T pbc="F F F"
C       -0.10240000       0.99670000      -0.56840000
O       -0.47900000       0.03710000       0.41130000
C       -1.21570000      -0.99890000      -0.04570000
N       -1.54520000      -1.92180000       0.74400000
C       -2.37020000      -3.03430000       0.29570000
C       -2.60020000      -3.22270000      -1.19890000
C       -1.40270000      -3.68450000      -2.00740000
C       -3.95500000      -3.64480000      -1.64010000
N       -3.49450000      -2.26610000      -1.89400000
H        0.42390000       1.78970000      -0.03580000
H        0.56920000       0.56260000      -1.31930000
H       -0.97730000       1.42400000      -1.07360000
H       -1.47750000      -0.92780000      -1.10920000
H       -1.91880000      -3.95010000       0.70050000
H       -3.34210000      -2.94150000       0.80140000
H       -1.11520000      -4.70080000      -1.71620000
H       -1.64160000      -3.68240000      -3.07360000
H       -0.53280000      -3.03920000      -1.85300000
H       -4.06270000      -4.25990000      -2.52960000
H       -4.72070000      -3.80660000      -0.88560000
H       -3.92350000      -1.64360000      -1.21220000
