13
Properties=species:S:1:pos:R:3 gdb_1876=T pbc="F F F"
C       -0.08870000       1.55200000       0.00730000
C        0.09870000       0.04770000       0.02520000
C        0.85430000      -0.53650000      -1.18070000
O        1.70610000      -1.52450000      -0.59970000
C        1.79900000      -1.31550000       0.74080000
O        2.52960000      -1.90670000       1.46820000
O        0.94010000      -0.33800000       1.12650000
H        0.87630000       2.05870000      -0.08550000
H       -0.71930000       1.84110000      -0.83980000
H       -0.57350000       1.89110000       0.92590000
H       -0.86630000      -0.45690000       0.15810000
H        0.20100000      -1.01590000      -1.91200000
H        1.46960000       0.21870000      -1.68410000
