17
Properties=species:S:1:pos:R:3 gdb_96712=T pbc="F F F"
C        0.05720000       1.37630000       0.45910000
N        0.06250000      -0.04060000       0.16100000
C       -1.00270000      -0.65800000      -0.11460000
O       -1.06340000      -1.96970000      -0.41520000
C        0.16230000      -2.67990000      -0.37920000
C        0.50140000      -3.43450000       0.87000000
C        0.02250000      -4.16440000      -0.37110000
C       -2.33360000      -0.07070000      -0.16910000
N       -3.36380000       0.45270000      -0.19340000
H        0.70940000       1.88990000      -0.25550000
H       -0.93480000       1.84510000       0.43120000
H        0.49190000       1.52940000       1.45270000
H        0.95120000      -2.19770000      -0.94370000
H        1.54430000      -3.50150000       1.15760000
H       -0.19680000      -3.35810000       1.69540000
H       -0.98620000      -4.56050000      -0.35320000
H        0.73070000      -4.74590000      -0.94990000
