17
Properties=species:S:1:pos:R:3 gdb_26210=T pbc="F F F"
C        0.12150000       1.40580000      -0.02310000
N       -0.15060000      -0.02070000      -0.04910000
C        0.06600000      -0.76100000       1.18160000
C       -0.05250000      -0.65820000      -1.24800000
N        0.04580000      -0.10860000      -2.43160000
C        0.03890000      -1.19170000      -3.29200000
O        0.12140000      -1.01150000      -4.62400000
C       -0.05080000      -2.35240000      -2.60710000
O       -0.10500000      -2.00160000      -1.25230000
H        1.19520000       1.62370000       0.08090000
H       -0.23290000       1.85560000      -0.95020000
H       -0.40720000       1.85440000       0.82310000
H       -0.45100000      -0.24850000       1.99790000
H       -0.34130000      -1.76710000       1.08680000
H        1.13250000      -0.83820000       1.44340000
H        0.17070000      -0.05870000      -4.76520000
H       -0.07360000      -3.39820000      -2.84340000
