15
Properties=species:S:1:pos:R:3 gdb_21073=T pbc="F F F"
C        0.03020000       1.43420000      -0.05530000
N       -0.00710000      -0.00830000       0.01160000
N       -0.08320000      -0.75650000      -1.12890000
C       -0.04880000      -2.01770000      -0.71260000
C        0.05470000      -2.11130000       0.69480000
N        0.11870000      -3.18210000       1.63340000
C        0.08100000      -0.79090000       1.10480000
O        0.17090000      -0.28340000       2.34710000
H        1.02630000       1.79330000      -0.33550000
H       -0.69080000       1.77210000      -0.80190000
H       -0.23340000       1.84020000       0.92260000
H       -0.10480000      -2.81910000      -1.43660000
H        0.92870000      -3.77480000       1.48050000
H       -0.69950000      -3.78110000       1.58440000
H        0.19930000      -1.05830000       2.92980000
