18
Properties=species:S:1:pos:R:3 gdb_69163=T pbc="F F F"
C        0.00600000       1.54650000       0.03330000
C       -0.04500000       0.05210000      -0.03260000
C       -0.83420000      -0.80190000       0.85930000
N        0.65430000      -0.82820000       1.04580000
C        1.15410000      -1.64370000      -0.03600000
O        1.93780000      -2.54340000      -0.00950000
C        0.55250000      -0.78670000      -1.18110000
C       -0.35470000      -1.41940000      -2.22310000
O        1.59920000      -0.04660000      -1.79250000
H        0.97110000       1.90960000      -0.32530000
H       -0.78000000       1.98510000      -0.59180000
H       -0.14440000       1.88910000       1.06060000
H       -1.33250000      -0.33060000       1.70050000
H       -1.32730000      -1.70160000       0.50090000
H       -1.21710000      -1.92090000      -1.77590000
H       -0.71230000      -0.65230000      -2.91650000
H        0.20490000      -2.16640000      -2.79620000
H        2.25100000      -0.67840000      -2.11790000
