17
Properties=species:S:1:pos:R:3 gdb_65637=T pbc="F F F"
O       -0.11370000       1.26440000       0.31380000
C        0.03570000      -0.11460000       0.06860000
C        0.34240000      -1.03070000       1.30450000
N       -0.96810000      -1.72830000       1.18080000
C       -2.06210000      -1.07870000       1.97980000
C       -2.50560000      -0.21800000       0.76470000
C       -1.33400000      -0.85950000      -0.00390000
C        0.91500000      -0.34520000      -1.08450000
N        1.62990000      -0.51230000      -1.97770000
H        0.76080000       1.66510000       0.38000000
H        1.19040000      -1.70800000       1.17260000
H        0.47240000      -0.45680000       2.22830000
H       -2.79750000      -1.81080000       2.32420000
H       -1.69830000      -0.51930000       2.84850000
H       -3.48360000      -0.47610000       0.35540000
H       -2.44200000       0.86280000       0.88840000
H       -1.54720000      -1.35170000      -0.95480000
