20
Properties=species:S:1:pos:R:3 gdb_114599=T pbc="F F F"
C       -0.01310000       1.50110000       0.13670000
C       -0.09210000      -0.02900000       0.11500000
C        0.55670000      -0.63210000      -1.12680000
C        2.10130000      -0.60300000      -1.30850000
N        2.18400000      -2.09270000      -1.56000000
C        1.69190000      -2.72700000      -0.34630000
C        0.66630000      -2.14930000      -1.25870000
C       -0.22220000      -2.99950000      -2.07120000
O       -1.30780000      -2.64880000      -2.46810000
H        1.02650000       1.84720000       0.12080000
H       -0.51940000       1.93480000      -0.73250000
H       -0.48430000       1.90920000       1.03560000
H        0.38050000      -0.43270000       1.01920000
H       -1.14130000      -0.34750000       0.14650000
H        0.06410000      -0.23550000      -2.01930000
H        2.44810000      -0.05840000      -2.18740000
H        2.68840000      -0.29220000      -0.43690000
H        1.80450000      -3.80770000      -0.35090000
H        1.86400000      -2.25660000       0.61960000
H        0.19330000      -4.00550000      -2.30590000
