20
Properties=species:S:1:pos:R:3 gdb_40025=T pbc="F F F"
C       -0.01030000       1.52420000       0.01770000
C        1.28950000       0.75670000      -0.02590000
C       -0.01790000       0.01500000       0.02880000
C       -0.44280000      -0.81140000       1.24840000
C       -1.51520000      -1.72170000       0.65790000
C       -2.70410000      -0.93520000       0.04210000
C       -1.97210000      -1.07270000      -1.28400000
C       -0.51940000      -0.77780000      -1.15290000
N       -1.01380000      -2.11270000      -0.73990000
H       -0.26630000       2.04590000       0.93450000
H       -0.33700000       2.02830000      -0.88630000
H        1.84860000       0.74640000      -0.95640000
H        1.91070000       0.75250000       0.86420000
H        0.39530000      -1.41100000       1.62270000
H       -0.82110000      -0.20140000       2.07500000
H       -1.76780000      -2.59010000       1.26580000
H       -3.62710000      -1.51880000       0.05230000
H       -2.91090000       0.07080000       0.42200000
H       -2.44240000      -1.19530000      -2.25570000
H        0.06840000      -0.78470000      -2.06660000
