11
Properties=species:S:1:pos:R:3 gdb_1029=T pbc="F F F"
O       -0.13540000       0.00980000      -0.00070000
C        0.01880000       1.20580000       0.00710000
C        1.30630000       1.90160000      -0.00180000
N        2.52430000       1.38160000      -0.01910000
C        3.37750000       2.44010000      -0.02050000
C        2.67900000       3.63220000      -0.00400000
N        1.36410000       3.27530000       0.00820000
H       -0.85300000       1.90440000       0.02190000
H        4.44860000       2.30500000      -0.03340000
H        2.99540000       4.66230000       0.00020000
H        0.57660000       3.90360000       0.02190000
