16
Properties=species:S:1:pos:R:3 gdb_115142=T pbc="F F F"
O        0.33490000       1.22900000       0.20130000
C        0.10380000      -0.13470000      -0.05730000
C       -1.39920000      -0.44460000      -0.02800000
N       -2.01560000       0.10780000       1.19220000
C       -3.40890000       0.50080000       0.93960000
C       -3.43630000       0.86650000      -0.53550000
O       -4.27440000       1.48110000      -1.13300000
C       -2.15770000       0.24160000      -1.15860000
O       -1.86360000       0.27500000      -2.32030000
H       -0.24400000       1.44560000       0.94630000
H        0.49020000      -0.36000000      -1.05610000
H        0.62330000      -0.78520000       0.66630000
H       -1.55300000      -1.53200000      -0.14790000
H       -1.93120000      -0.52020000       1.98090000
H       -4.14010000      -0.31170000       1.09440000
H       -3.71670000       1.34520000       1.56330000
