19
Properties=species:S:1:pos:R:3 gdb_50366=T pbc="F F F"
O       -0.77100000       1.07600000      -0.23900000
C        0.25430000       0.97760000       0.38490000
C        1.48840000       1.80690000       0.14060000
C        1.42450000       2.98190000      -0.89610000
C        2.16570000       3.89890000       0.14210000
C        1.65240000       5.22310000       0.74160000
C        1.59880000       4.92320000       2.27780000
C        1.39120000       3.40930000       2.33600000
C        1.78340000       2.88200000       1.18170000
H        0.34590000       0.25500000       1.22860000
H        2.34310000       1.13810000      -0.02690000
H        1.91670000       2.81230000      -1.85560000
H        0.38650000       3.27790000      -1.06260000
H        3.24160000       3.92390000      -0.07180000
H        2.27270000       6.09100000       0.50080000
H        0.63810000       5.42900000       0.38160000
H        2.52730000       5.22980000       2.77980000
H        0.78680000       5.46370000       2.77570000
H        0.92500000       2.90690000       3.17520000
