16
Properties=species:S:1:pos:R:3 gdb_88497=T pbc="F F F"
C        0.78880000       1.25040000      -0.67770000
C        0.10150000       0.07280000      -0.03990000
O        0.90460000      -1.06700000       0.32720000
C        0.25360000      -0.35420000       1.36270000
C        1.14660000       0.31070000       2.38320000
C        2.43990000      -0.30900000       2.75170000
O        2.38250000       0.87090000       1.95430000
C        0.42830000       1.08490000       3.38250000
N       -0.17650000       1.68540000       4.16270000
H        1.74060000       1.46620000      -0.19500000
H        0.96700000       1.04270000      -1.73780000
H        0.14570000       2.13480000      -0.61580000
H       -0.84010000      -0.21650000      -0.51070000
H       -0.58210000      -0.87520000       1.83540000
H        2.83120000      -0.17650000       3.75740000
H        2.72880000      -1.21150000       2.21890000
