19
Properties=species:S:1:pos:R:3 gdb_90907=T pbc="F F F"
C       -0.38870000       1.48480000      -0.17350000
C        0.03130000       0.03590000      -0.03660000
O        1.17390000      -0.30970000      -0.94080000
C        2.05100000      -0.12910000       0.21490000
C        2.92490000      -0.94950000       1.26180000
C        1.99210000      -0.12390000       2.30420000
C        0.92840000      -0.43180000       1.15410000
C        0.94540000      -1.97290000       1.20250000
C        2.23270000      -2.30190000       1.28490000
H        0.42400000       2.17230000       0.07520000
H       -0.70410000       1.68670000      -1.20140000
H       -1.23300000       1.69390000       0.49190000
H       -0.80710000      -0.63770000      -0.24400000
H        2.40560000       0.90770000       0.20290000
H        4.01300000      -0.89050000       1.30870000
H        1.83850000      -0.60560000       3.27170000
H        2.26810000       0.92750000       2.42050000
H        0.05880000      -2.59190000       1.18450000
H        2.71110000      -3.26810000       1.35030000
