15
Properties=species:S:1:pos:R:3 gdb_133485=T pbc="F F F"
C        0.01140000       1.48240000       0.02140000
C        0.01850000       0.02760000       0.00640000
C        0.02680000      -1.17490000      -0.00160000
C        0.02370000      -2.63460000      -0.02490000
N       -1.32230000      -3.16610000       0.18290000
C        0.67020000      -3.14580000      -1.32820000
F        1.92630000      -2.71310000      -1.46940000
F        0.70140000      -4.49200000      -1.32140000
F       -0.02640000      -2.76710000      -2.40720000
H        0.87730000       1.87610000       0.56430000
H        0.04100000       1.88900000      -0.99510000
H       -0.89090000       1.86620000       0.50930000
H        0.66610000      -3.01640000       0.77990000
H       -1.93590000      -2.81660000      -0.54740000
H       -1.29960000      -4.17860000       0.09820000
