16
Properties=species:S:1:pos:R:3 gdb_36664=T pbc="F F F"
C        1.10260000      -1.25260000       0.64340000
C        0.81390000      -0.14470000       0.27650000
C        0.45480000       1.16840000      -0.16580000
C        0.18760000       2.26050000       0.87260000
C        1.40940000       2.34470000       0.03080000
O        2.62550000       2.14910000       0.68590000
C        3.74610000       2.08920000      -0.16390000
C        3.76360000       0.94920000      -1.10010000
N        3.81050000       0.08080000      -1.86010000
H        1.37190000      -2.23140000       0.95400000
H       -0.14610000       1.20550000      -1.07000000
H       -0.62160000       2.95840000       0.69260000
H        0.33640000       1.97480000       1.90700000
H        1.44520000       3.08690000      -0.76650000
H        3.84200000       3.01060000      -0.75920000
H        4.62170000       2.02010000       0.48740000
