17
Properties=species:S:1:pos:R:3 gdb_5541=T pbc="F F F"
C        0.18150000       0.96950000      -0.45400000
O       -0.43680000       0.25650000       0.61770000
C        0.40600000      -0.52500000       1.34260000
C        0.77570000      -1.84110000       1.18190000
C        0.33630000      -2.75170000       0.07640000
C        1.63990000      -2.14350000       2.28100000
C        1.76070000      -1.01830000       3.05870000
N        1.01070000      -0.02530000       2.47380000
H        0.64720000       0.28190000      -1.16950000
H       -0.60950000       1.53470000      -0.95190000
H        0.94560000       1.66440000      -0.08240000
H        1.16000000      -3.01530000      -0.59870000
H       -0.06890000      -3.69200000       0.46730000
H       -0.44740000      -2.27840000      -0.52230000
H        2.11490000      -3.09450000       2.47160000
H        2.30530000      -0.83950000       3.97140000
H        0.83810000       0.89180000       2.84650000
