13
Properties=species:S:1:pos:R:3 gdb_130323=T pbc="F F F"
N        0.00690000       1.30500000      -0.04310000
C       -0.00960000      -0.05710000       0.04020000
N       -1.14460000      -0.70010000       0.03130000
O       -1.12000000      -2.06100000       0.17270000
N        0.02450000      -2.79430000       0.33000000
C        1.16630000      -2.16330000       0.34060000
N        2.32680000      -2.85040000       0.54980000
C        1.28340000      -0.72120000       0.15810000
O        2.35710000      -0.13140000       0.09050000
H        0.89870000       1.69680000      -0.30510000
H       -0.82100000       1.76080000      -0.39140000
H        2.31010000      -3.84750000       0.40870000
H        3.16110000      -2.35540000       0.27300000
