19
Properties=species:S:1:pos:R:3 gdb_68530=T pbc="F F F"
C       -0.04930000       1.50850000       0.01970000
C        0.03420000      -0.00820000       0.02350000
C        0.72970000      -0.71210000      -1.18660000
C        0.53090000      -2.13670000      -0.59530000
C        1.10470000      -1.91740000       0.79520000
C        0.80580000      -0.66890000       1.16030000
C       -1.03520000      -2.11530000      -0.48370000
O       -1.58350000      -1.84180000       0.80910000
C       -1.35510000      -0.74670000      -0.08240000
H        0.94760000       1.95810000      -0.03100000
H       -0.62280000       1.87280000      -0.84010000
H       -0.53800000       1.88160000       0.92640000
H        0.19300000      -0.55910000      -2.13060000
H        1.77970000      -0.42900000      -1.30570000
H        0.92340000      -2.97940000      -1.16390000
H        1.56460000      -2.68690000       1.40130000
H        0.97340000      -0.20670000       2.12530000
H       -1.64300000      -2.73340000      -1.13730000
H       -2.23680000      -0.19170000      -0.39130000
