18
Properties=species:S:1:pos:R:3 gdb_70263=T pbc="F F F"
C       -0.24400000       1.53540000       0.11240000
C       -0.05080000       0.03990000       0.02730000
C       -0.89400000      -0.90100000       0.87310000
C        0.58400000      -0.77090000       1.12090000
O        1.38810000      -1.78900000       0.55760000
C        1.68730000      -1.42400000      -0.78520000
C        0.49370000      -0.56250000      -1.27600000
C        2.96010000      -0.67100000      -0.84700000
N        3.94900000      -0.07500000      -0.89450000
H        0.67430000       2.06870000      -0.15710000
H       -1.03960000       1.87110000      -0.56230000
H       -0.52300000       1.83870000       1.12610000
H       -1.57070000      -0.45270000       1.59370000
H       -1.24020000      -1.83080000       0.43370000
H        0.98190000      -0.34300000       2.03490000
H        1.81190000      -2.34650000      -1.35940000
H       -0.23930000      -1.19790000      -1.78100000
H        0.81480000       0.20920000      -1.97870000
