15
Properties=species:S:1:pos:R:3 gdb_33819=T pbc="F F F"
N        0.08910000      -1.16110000      -0.04600000
C        0.05900000      -0.00450000      -0.02110000
C        0.00160000       1.41900000       0.03400000
C        0.27670000       2.28610000      -1.16610000
C        1.17950000       2.44930000       0.02810000
C        0.47150000       3.26210000       1.12690000
C       -0.70340000       2.23430000       1.13290000
C        2.58240000       2.20270000      -0.03370000
N        3.72460000       2.01900000      -0.06420000
H        0.71830000       1.77630000      -2.01450000
H       -0.42050000       3.08170000      -1.41500000
H        1.02570000       3.26420000       2.06540000
H        0.23200000       4.29120000       0.84890000
H       -1.69310000       2.60710000       0.85890000
H       -0.77350000       1.69010000       2.07460000
