19
Properties=species:S:1:pos:R:3 gdb_12535=T pbc="F F F"
C       -0.18540000       1.50920000       0.03680000
C        0.03140000      -0.01070000      -0.00010000
C        0.69630000      -0.44710000      -1.30910000
C        0.73210000      -1.96300000      -1.52970000
N        1.51470000      -2.79040000      -0.62760000
C        1.52330000      -2.69750000       0.62790000
O        0.93400000      -1.82450000       1.49320000
C        0.86800000      -0.42440000       1.21000000
H        0.76890000       2.04620000      -0.01730000
H       -0.79540000       1.83540000      -0.81060000
H       -0.69260000       1.82110000       0.95560000
H       -0.94570000      -0.50720000       0.08390000
H        0.15790000      -0.00420000      -2.15670000
H        1.71920000      -0.04720000      -1.34780000
H       -0.30060000      -2.34460000      -1.51240000
H        1.10510000      -2.15640000      -2.54150000
H        2.04450000      -3.46250000       1.20630000
H        1.89220000      -0.04050000       1.09260000
H        0.45030000       0.00780000       2.12360000
