17
Properties=species:S:1:pos:R:3 gdb_76227=T pbc="F F F"
N       -0.03810000       1.30730000      -0.02430000
C       -0.07600000      -0.05800000       0.02450000
N       -1.14270000      -0.77230000       0.03750000
C       -0.73020000      -2.16230000       0.06310000
C       -0.02790000      -2.65100000      -1.18960000
C        0.78080000      -2.25250000       0.02100000
O        1.53650000      -3.26260000       0.61090000
C        1.25760000      -0.81060000       0.10170000
O        2.20750000      -0.36800000      -0.85640000
H        0.80750000       1.69180000      -0.41950000
H       -0.89230000       1.76130000      -0.31220000
H       -1.34160000      -2.85310000       0.63240000
H       -0.03310000      -3.71750000      -1.38690000
H       -0.07000000      -2.01430000      -2.06920000
H        1.50500000      -3.14380000       1.56700000
H        1.73260000      -0.62760000       1.07560000
H        1.97850000      -0.77720000      -1.69900000
