18
Properties=species:S:1:pos:R:3 gdb_114174=T pbc="F F F"
C       -0.00990000       1.32250000      -0.12280000
O       -0.05170000       0.00620000       0.38640000
C       -1.25760000      -0.64300000       0.12860000
C       -1.56640000      -1.18880000      -1.32030000
C       -1.74300000      -2.57060000      -0.69930000
N       -0.44100000      -2.91970000      -0.07860000
C       -1.34080000      -2.06480000       0.68100000
C       -2.78440000      -3.56990000      -0.94000000
O       -3.63810000      -3.48730000      -1.79090000
H        0.95920000       1.74390000       0.15250000
H       -0.10710000       1.34190000      -1.21820000
H       -0.80740000       1.94910000       0.30670000
H       -2.11160000      -0.05000000       0.49090000
H       -2.47910000      -0.78600000      -1.75930000
H       -0.73630000      -1.12550000      -2.02570000
H       -0.50580000      -3.86320000       0.30710000
H       -1.71960000      -2.36770000       1.65020000
H       -2.73960000      -4.43820000      -0.23820000
