21
Properties=species:S:1:pos:R:3 gdb_86390=T pbc="F F F"
C       -0.00460000       1.52080000      -0.03950000
C       -0.02670000      -0.00950000      -0.01070000
C        0.66550000      -0.66520000      -1.22920000
C        1.22710000      -2.02690000      -0.74540000
O        2.39720000      -2.44630000      -1.42400000
C        1.42200000      -1.81880000       0.74470000
O        2.13400000      -0.59610000       1.02560000
C        0.69830000      -0.62370000       1.18950000
C        0.19270000      -0.41070000       2.59000000
H        1.02680000       1.88670000      -0.00340000
H       -0.46680000       1.90080000      -0.95600000
H       -0.54820000       1.95150000       0.80750000
H       -1.07080000      -0.34940000       0.04040000
H       -0.00270000      -0.77480000      -2.08640000
H        1.50760000      -0.04470000      -1.55170000
H        0.49840000      -2.83120000      -0.90220000
H        3.08600000      -1.80770000      -1.20370000
H        1.65660000      -2.65590000       1.39830000
H        0.22180000       0.65040000       2.85930000
H       -0.84420000      -0.75130000       2.68260000
H        0.80690000      -0.95850000       3.30870000
