23
Properties=species:S:1:pos:R:3 gdb_114120=T pbc="F F F"
C        0.11840000       1.51180000      -0.01010000
C        0.05350000      -0.01500000       0.09500000
C       -1.37070000      -0.55890000       0.08210000
C       -2.21090000      -0.45900000      -1.24900000
C       -2.35540000      -1.99340000      -1.22230000
C       -3.45370000      -2.84270000      -1.78250000
C       -3.44710000      -2.87540000      -3.31740000
O       -1.01340000      -2.51560000      -1.25720000
C       -1.54650000      -2.08580000       0.00540000
H        1.15400000       1.86560000      -0.00580000
H       -0.34970000       1.86740000      -0.93450000
H       -0.40070000       1.99150000       0.82750000
H        0.60600000      -0.47360000      -0.73250000
H        0.55090000      -0.33940000       1.01900000
H       -1.94750000      -0.14950000       0.91960000
H       -3.15540000       0.07490000      -1.11820000
H       -1.68730000      -0.06510000      -2.12420000
H       -3.34300000      -3.85830000      -1.38620000
H       -4.41670000      -2.46010000      -1.42110000
H       -4.25500000      -3.50670000      -3.69860000
H       -3.57960000      -1.87240000      -3.73640000
H       -2.49800000      -3.27230000      -3.68940000
H       -1.55190000      -2.81630000       0.80820000
