13
Properties=species:S:1:pos:R:3 gdb_129246=T pbc="F F F"
N       -0.03900000       1.32220000       0.16850000
C       -0.00690000       0.06700000       0.05550000
O        1.09450000      -0.77380000      -0.07460000
C        0.58700000      -2.03240000      -0.19540000
N       -0.68810000      -2.10850000      -0.14250000
N       -1.08270000      -0.79770000       0.05050000
C       -2.46460000      -0.40270000      -0.01100000
C       -3.01380000      -0.41240000      -1.37770000
N       -3.44950000      -0.42660000      -2.44670000
H        0.88800000       1.73530000       0.16070000
H        1.27840000      -2.84930000      -0.31890000
H       -3.06210000      -1.06740000       0.61960000
H       -2.52070000       0.61220000       0.39320000
