18
Properties=species:S:1:pos:R:3 gdb_126180=T pbc="F F F"
C       -0.02640000       1.56240000       0.12090000
C       -0.11340000       0.04360000       0.27700000
C       -1.47610000      -0.51170000      -0.18580000
O       -1.73810000      -0.16810000      -1.53290000
C       -1.54690000      -2.00140000       0.02950000
N       -1.55520000      -2.79580000      -1.01280000
O       -1.58520000      -4.09300000      -0.51720000
C       -1.59710000      -4.03450000       0.82220000
C       -1.57320000      -2.74670000       1.24550000
H        0.96270000       1.93050000       0.40880000
H       -0.21480000       1.84820000      -0.91660000
H       -0.76810000       2.06810000       0.74960000
H        0.67050000      -0.44640000      -0.31340000
H        0.05180000      -0.24380000       1.32320000
H       -2.26220000      -0.03950000       0.42230000
H       -1.54900000      -0.94430000      -2.07480000
H       -1.62650000      -4.98510000       1.33200000
H       -1.57940000      -2.37860000       2.25760000
