11
Properties=species:S:1:pos:R:3 gdb_4293=T pbc="F F F"
O        0.03220000       1.29940000       0.00770000
C       -0.06210000      -0.02430000       0.00120000
N       -1.17150000      -0.62550000       0.00410000
C       -1.15870000      -2.02870000      -0.00320000
N       -2.25360000      -2.67120000      -0.00130000
N        0.10710000      -2.69420000      -0.01380000
C        1.14770000      -1.98520000      -0.01580000
O        1.18390000      -0.60790000      -0.00880000
H        0.96600000       1.54770000       0.00390000
H       -2.04250000      -3.66970000      -0.00800000
H        2.15470000      -2.39040000      -0.02350000
