14
Properties=species:S:1:pos:R:3 gdb_20345=T pbc="F F F"
C       -0.06820000       1.47560000       0.01070000
C        1.39460000       1.90430000      -0.00090000
C        2.23460000       0.84940000      -0.01480000
C        1.44640000      -0.37630000      -0.01410000
C        1.44650000      -1.75290000      -0.02170000
N        0.12680000      -2.11190000      -0.01090000
N       -0.73510000      -1.06190000       0.00300000
C        0.07540000      -0.01930000       0.00100000
H       -0.59700000       1.84970000       0.89650000
H       -0.61380000       1.85940000      -0.86070000
H        1.69270000       2.94510000       0.00200000
H        3.31550000       0.90530000      -0.02490000
H        2.22670000      -2.49710000      -0.03320000
H       -0.25020000      -3.04400000      -0.01230000
