12
Properties=species:S:1:pos:R:3 gdb_125558=T pbc="F F F"
C       -0.01840000       1.41990000      -0.02860000
C        0.00270000      -0.06680000       0.00730000
N       -0.06550000      -0.79460000      -1.11160000
N       -0.01240000      -2.04120000      -0.57960000
N       -0.02630000      -3.30650000      -1.01050000
N        0.05250000      -4.06370000      -0.01420000
O        0.12680000      -3.24120000       1.20950000
C        0.08040000      -1.99420000       0.77040000
N        0.09460000      -0.76510000       1.20680000
H        0.89560000       1.82230000       0.41890000
H       -0.10230000       1.77060000      -1.05770000
H       -0.86160000       1.80060000       0.55560000
