16
Properties=species:S:1:pos:R:3 gdb_29459=T pbc="F F F"
N        0.03590000       1.42300000       0.16160000
C        0.03610000       0.01980000       0.04820000
C       -1.05110000      -0.81810000      -0.00320000
N       -0.62130000      -2.16490000      -0.11080000
C        0.74460000      -2.12080000      -0.02620000
C        1.20890000      -0.81480000       0.03260000
C        2.63980000      -0.89340000       0.02910000
C        2.96420000      -2.22690000      -0.02490000
N        1.79570000      -2.99100000      -0.06870000
H        0.75270000       1.84910000      -0.41370000
H       -0.85840000       1.82760000      -0.08710000
H       -2.10450000      -0.58920000      -0.02540000
H       -1.18420000      -2.92830000       0.22670000
H        3.35190000      -0.08370000       0.07180000
H        3.92490000      -2.71590000      -0.02640000
H        1.75910000      -3.99360000      -0.09100000
