21
Properties=species:S:1:pos:R:3 gdb_61837=T pbc="F F F"
C        0.17140000       1.55120000      -0.31590000
C        0.08950000       0.06010000      -0.06740000
C        1.32600000      -0.80340000      -0.04640000
C        0.54230000      -0.57680000       1.22780000
C        1.11560000       0.23580000       2.36670000
O        0.11530000       1.00630000       3.03490000
C        1.87480000      -0.65920000       3.36890000
C        2.53550000       0.13550000       4.47500000
O        3.67430000      -0.02210000       4.83730000
H        1.10730000       1.97760000       0.05560000
H        0.12060000       1.76400000      -1.38910000
H       -0.64950000       2.08210000       0.17620000
H       -0.78960000      -0.40580000      -0.50590000
H        1.30000000      -1.78540000      -0.50530000
H        2.28470000      -0.30020000      -0.13470000
H       -0.05350000      -1.42330000       1.56940000
H        1.81310000       0.98130000       1.96920000
H       -0.62870000       0.42270000       3.22100000
H        1.14880000      -1.34380000       3.83440000
H        2.63300000      -1.26660000       2.86660000
H        1.87980000       0.90020000       4.94310000
