18
Properties=species:S:1:pos:R:3 gdb_99328=T pbc="F F F"
C        0.14250000       0.91280000       0.26610000
N       -0.56570000       0.11670000      -0.71400000
C       -1.38730000      -0.72910000      -0.28670000
O       -2.10020000      -1.48410000      -1.16190000
C       -2.94670000      -2.45980000      -0.60750000
C       -2.18610000      -3.66660000      -0.04190000
O       -1.03440000      -3.59160000       0.29420000
C       -3.01520000      -4.93990000       0.06900000
O       -2.33510000      -5.88020000       0.85280000
H        1.22110000       0.75440000       0.15570000
H       -0.04410000       1.97670000       0.07980000
H       -0.13270000       0.69040000       1.31010000
H       -1.61880000      -0.91790000       0.77100000
H       -3.57120000      -2.04830000       0.20270000
H       -3.62630000      -2.77420000      -1.40590000
H       -4.00670000      -4.67300000       0.47750000
H       -3.19230000      -5.28860000      -0.96470000
H       -2.83660000      -6.70060000       0.84290000
