13
Properties=species:S:1:pos:R:3 gdb_42350=T pbc="F F F"
O       -0.08850000      -0.16580000       0.00240000
C       -0.06950000       1.04180000       0.00540000
C        1.21640000       1.88090000      -0.00230000
C        2.43870000       1.09790000      -0.01500000
C        3.45480000       0.45910000      -0.02550000
C       -1.28620000       1.82940000       0.01680000
C       -2.31010000       2.48000000       0.02650000
C       -3.45430000       3.21020000       0.03710000
C       -4.47210000       3.86000000       0.04620000
H        1.16600000       2.55120000      -0.87170000
H        1.18020000       2.54500000       0.87250000
H        4.35030000      -0.11150000      -0.03480000
H       -5.36810000       4.43090000       0.05450000
