20
Properties=species:S:1:pos:R:3 gdb_12087=T pbc="F F F"
C       -0.05470000       1.53390000      -0.31590000
C       -0.05410000       0.05220000      -0.00960000
C        1.15980000      -0.80510000      -0.26410000
C        0.71030000      -0.54740000       1.15560000
C        1.50910000       0.25810000       2.15520000
C        2.87430000       0.78120000       1.76480000
C        0.78170000       0.90790000       3.26090000
O        1.48150000      -0.31710000       3.47730000
H        0.92360000       1.99130000      -0.14390000
H       -0.31900000       1.71280000      -1.36390000
H       -0.78180000       2.06940000       0.30490000
H       -1.01010000      -0.42810000      -0.20400000
H        1.03190000      -1.80090000      -0.67440000
H        2.05700000      -0.30080000      -0.60780000
H        0.21240000      -1.37460000       1.65230000
H        2.82100000       1.48730000       0.93040000
H        3.33480000       1.28940000       2.61530000
H        3.52650000      -0.04450000       1.46280000
H        1.20580000       1.78430000       3.75150000
H       -0.30500000       0.83870000       3.30110000
