25
Properties=species:S:1:pos:R:3 gdb_59951=T pbc="F F F"
C       -0.15230000       1.03310000       0.64800000
C       -0.18980000      -0.33150000      -0.05530000
C       -1.64200000      -0.73840000      -0.34910000
C        0.62770000      -0.37120000      -1.36210000
C        2.16950000      -0.19970000      -1.28370000
C        2.82470000      -1.11460000      -0.24340000
C        2.74580000      -0.49680000      -2.69210000
C        2.52610000       1.25650000      -1.01910000
O        3.31090000       1.65000000      -0.19440000
H        0.85500000       1.31590000       0.96350000
H       -0.53190000       1.82310000      -0.01180000
H       -0.78370000       1.02250000       1.54250000
H        0.22750000      -1.07920000       0.63140000
H       -2.11660000      -0.02990000      -1.03880000
H       -1.69670000      -1.73270000      -0.80490000
H       -2.23860000      -0.75580000       0.56860000
H        0.44140000      -1.33620000      -1.85080000
H        0.22780000       0.38940000      -2.04950000
H        2.55960000      -2.16030000      -0.43080000
H        3.91300000      -1.02230000      -0.28260000
H        2.51750000      -0.85670000       0.77280000
H        2.31520000       0.16570000      -3.45090000
H        3.83310000      -0.37340000      -2.70880000
H        2.51500000      -1.52770000      -2.97870000
H        2.01380000       1.97290000      -1.70620000
