14
Properties=species:S:1:pos:R:3 gdb_814=T pbc="F F F"
O       -0.16360000       1.33090000       0.00790000
N        0.00420000      -0.06750000       0.00250000
C       -1.11980000      -0.66020000       0.00850000
C       -2.50270000      -0.03570000       0.02010000
C       -3.40360000      -1.24620000       0.02330000
C       -2.72140000      -2.39090000       0.01510000
C       -1.22650000      -2.17660000       0.00480000
H        0.74720000       1.64390000       0.00260000
H       -2.63660000       0.61260000       0.89650000
H       -2.64920000       0.61720000      -0.85080000
H       -4.48430000      -1.16340000       0.03140000
H       -3.16070000      -3.38170000       0.01550000
H       -0.74330000      -2.61620000      -0.87740000
H       -0.73030000      -2.62150000       0.87700000
