19
Properties=species:S:1:pos:R:3 gdb_65213=T pbc="F F F"
O        0.81620000       0.32380000       1.65810000
C        0.12640000      -0.04540000       0.48570000
C        0.60470000       0.56040000      -0.80840000
C        0.93790000      -0.87890000      -0.46010000
C       -1.32900000      -0.35550000       0.74300000
C       -2.35580000       0.82090000       0.98820000
C       -3.23570000       0.20750000      -0.10880000
O       -2.47130000       0.20800000      -1.31830000
C       -2.25480000      -0.85630000      -0.38120000
H        0.54930000       1.22220000       1.88250000
H       -0.12460000       0.75230000      -1.58510000
H        1.41230000       1.28030000      -0.73220000
H        1.95380000      -1.10020000      -0.15420000
H        0.44320000      -1.66990000      -1.01300000
H       -1.38020000      -1.05260000       1.58630000
H       -2.80120000       0.79560000       1.98480000
H       -2.00430000       1.83150000       0.76360000
H       -4.31460000       0.21250000      -0.20860000
H       -2.38750000      -1.86680000      -0.75070000
