21
Properties=species:S:1:pos:R:3 gdb_111115=T pbc="F F F"
C        0.05290000       1.53990000       0.19200000
C       -0.11620000       0.03550000      -0.04720000
C        0.60800000      -0.44890000      -1.30070000
C        2.13900000      -0.65950000      -1.15390000
O        1.83470000      -1.91180000      -0.43750000
C        0.74640000      -1.98740000      -1.43130000
C        1.54090000      -2.24200000      -2.72850000
C        1.73920000      -1.12930000      -3.72730000
C        2.63040000      -1.20120000      -2.51240000
H        1.10610000       1.80700000       0.33210000
H       -0.32630000       2.12510000      -0.65360000
H       -0.48990000       1.85980000       1.08670000
H        0.24550000      -0.52850000       0.81710000
H       -1.18460000      -0.19570000      -0.15200000
H        0.24910000       0.11060000      -2.16730000
H        2.78980000       0.01510000      -0.59730000
H       -0.04780000      -2.68310000      -1.15850000
H        1.76520000      -3.26550000      -3.00300000
H        2.20920000      -1.42760000      -4.66030000
H        1.00970000      -0.33950000      -3.85690000
H        3.68230000      -1.43420000      -2.62370000
