14
Properties=species:S:1:pos:R:3 gdb_19608=T pbc="F F F"
O       -0.08980000       1.47120000      -0.16990000
C       -0.01610000       0.07250000      -0.10340000
C       -1.35170000      -0.65990000      -0.11070000
C       -0.79420000      -1.75560000      -0.96230000
C       -1.81870000      -0.77620000      -1.56800000
C       -0.71230000      -0.22140000      -2.41420000
O       -0.64010000       0.20700000      -3.52920000
C        0.33010000      -0.73220000      -1.39480000
H        0.80280000       1.82940000      -0.21460000
H        0.59550000      -0.27170000       0.74210000
H       -2.07540000      -0.72900000       0.69110000
H       -0.82770000      -2.83180000      -0.91720000
H       -2.85400000      -0.96030000      -1.81870000
H        1.35160000      -0.95320000      -1.69210000
