18
Properties=species:S:1:pos:R:3 gdb_102456=T pbc="F F F"
C        0.43710000      -2.15610000       0.00060000
N        0.61520000      -0.70940000      -0.01860000
C        0.84940000      -0.11150000      -1.33760000
C       -0.26320000       0.84670000      -1.77170000
O       -1.54250000       0.23660000      -1.72700000
C        2.18070000       0.61190000      -1.16420000
O        2.32910000       1.81160000      -1.13980000
C        3.41240000      -0.27770000      -0.95080000
O        3.45000000      -1.44780000      -1.23170000
H       -0.38470000      -2.50460000      -0.64690000
H        1.36170000      -2.63990000      -0.32620000
H        0.22810000      -2.47870000       1.02450000
H       -0.17530000      -0.24940000       0.41610000
H        0.97410000      -0.90800000      -2.08280000
H       -0.30460000       1.69090000      -1.07690000
H       -0.03400000       1.26140000      -2.76320000
H       -1.57920000      -0.43840000      -2.41240000
H        4.29400000       0.28940000      -0.58400000
