17
Properties=species:S:1:pos:R:3 gdb_127667=T pbc="F F F"
C        0.18010000       1.44530000      -0.10940000
N        0.04670000       0.00700000       0.00680000
N        0.03120000      -0.76530000      -1.11460000
C       -0.14470000      -1.97750000      -0.61940000
N       -0.24550000      -2.04070000       0.73280000
C       -0.12790000      -0.77050000       1.09950000
C       -0.16920000      -0.29800000       2.49420000
C       -1.19900000      -0.87880000       3.40880000
N        0.20860000      -1.25060000       3.55180000
H        0.77410000       1.83600000       0.71920000
H        0.68940000       1.65560000      -1.04950000
H       -0.79830000       1.93630000      -0.11410000
H       -0.19430000      -2.84750000      -1.25720000
H        0.16540000       0.72110000       2.66380000
H       -1.60180000      -0.26700000       4.21120000
H       -1.88480000      -1.59880000       2.97240000
H        0.35690000      -2.15570000       3.10620000
