18
Properties=species:S:1:pos:R:3 gdb_96995=T pbc="F F F"
C        0.15660000       1.44970000      -0.10110000
N        0.39810000       0.01360000      -0.11750000
C        0.58530000      -0.59400000       0.95530000
O        0.64740000      -0.12720000       2.27420000
C        0.94060000      -1.45650000       2.78210000
C       -0.32540000      -2.26100000       3.07730000
O       -0.40820000      -2.70900000       1.70200000
C        0.83610000      -2.04300000       1.34920000
C        1.78560000      -2.90030000       0.56640000
H        0.88180000       1.93940000      -0.75970000
H       -0.83730000       1.64720000      -0.51740000
H        0.21800000       1.90310000       0.89480000
H        1.80050000      -1.46560000       3.44900000
H       -0.18040000      -3.10680000       3.76010000
H       -1.19240000      -1.66970000       3.38840000
H        1.35110000      -3.11730000      -0.41440000
H        2.73550000      -2.38200000       0.40820000
H        1.97000000      -3.84620000       1.08230000
