25
Properties=species:S:1:pos:R:3 gdb_101016=T pbc="F F F"
C       -0.13440000       1.44900000      -0.10530000
C        0.39130000       0.01880000       0.05280000
C        0.63120000      -0.73240000      -1.27800000
C        1.77150000      -0.09700000      -2.08340000
C        0.84510000      -2.22300000      -0.98620000
C       -0.40260000      -3.03750000      -0.66800000
C       -1.24860000      -3.36750000      -1.90470000
C        2.01470000      -2.97010000      -1.48150000
O        1.97040000      -2.50510000      -0.13110000
H        0.57890000       2.09900000      -0.62100000
H       -1.07160000       1.46800000      -0.67370000
H       -0.33320000       1.89750000       0.87310000
H        1.33030000       0.02150000       0.61820000
H       -0.32290000      -0.54650000       0.66230000
H       -0.28770000      -0.65550000      -1.87600000
H        1.87900000      -0.56310000      -3.06730000
H        1.58880000       0.96800000      -2.24660000
H        2.72290000      -0.19440000      -1.54940000
H       -0.07580000      -3.96230000      -0.18120000
H       -1.01840000      -2.50450000       0.06560000
H       -1.62170000      -2.46390000      -2.39740000
H       -0.66810000      -3.93140000      -2.64260000
H       -2.11760000      -3.97250000      -1.62900000
H        1.93740000      -4.05110000      -1.60300000
H        2.75900000      -2.49460000      -2.11460000
