20
Properties=species:S:1:pos:R:3 gdb_111425=T pbc="F F F"
O        0.18690000       1.49060000       0.46080000
C        0.05360000       0.20550000      -0.13190000
C       -1.32420000      -0.40180000       0.11120000
C       -1.55110000      -1.88100000      -0.21070000
C       -0.79670000      -2.76400000       0.69720000
N       -2.07200000      -2.19790000       1.18320000
C       -1.81050000      -0.74630000       1.55340000
C       -0.95270000      -0.53340000       2.78790000
O       -1.59510000      -1.06840000       3.93340000
H       -0.45230000       2.07800000       0.04440000
H        0.25560000       0.23680000      -1.21480000
H        0.84100000      -0.40380000       0.31990000
H       -2.07120000       0.22420000      -0.38960000
H       -2.05350000      -2.25630000      -1.09660000
H       -0.86600000      -3.83280000       0.51970000
H        0.14660000      -2.44640000       1.13100000
H       -2.78830000      -0.30000000       1.75270000
H        0.05380000      -0.96140000       2.66300000
H       -0.81920000       0.53880000       2.95850000
H       -1.87840000      -1.96130000       3.70460000
