17
Properties=species:S:1:pos:R:3 gdb_50377=T pbc="F F F"
O       -0.93370000       1.55630000      -0.11520000
C        0.09300000       1.24160000       0.43290000
C        1.42370000       1.90610000       0.19790000
C        1.49650000       3.02500000      -0.87250000
C        2.01110000       4.02970000       0.19930000
O        1.15020000       5.08630000       0.56750000
C        0.15410000       4.51270000       1.38360000
O        0.76830000       3.45280000       2.10820000
C        1.82160000       2.95640000       1.31070000
H        0.10780000       0.42790000       1.19130000
H        2.19460000       1.13390000       0.10610000
H        2.18590000       2.83930000      -1.69780000
H        0.51650000       3.28500000      -1.27760000
H        3.00760000       4.44100000       0.03580000
H       -0.20330000       5.26430000       2.09210000
H       -0.67800000       4.12230000       0.77890000
H        2.65180000       2.67990000       1.96190000
