20
Properties=species:S:1:pos:R:3 gdb_81068=T pbc="F F F"
C        0.00490000       1.75650000      -0.10860000
C        0.02790000       0.24480000       0.05950000
C        1.06900000      -0.66860000      -0.64500000
C        2.17850000      -0.20950000       0.32530000
C        0.88640000      -0.50880000       1.13630000
O        0.72190000      -1.74220000       0.30740000
C        0.71390000      -0.63680000       2.60380000
C        0.11700000       0.48290000       3.38010000
N       -0.63090000      -0.76530000       3.18790000
H        0.98250000       2.22170000       0.03910000
H       -0.33870000       2.01770000      -1.11560000
H       -0.69330000       2.21820000       0.59730000
H       -0.97410000      -0.18790000      -0.01990000
H        1.14060000      -0.93860000      -1.69880000
H        2.98040000      -0.93380000       0.47280000
H        2.54510000       0.81740000       0.27500000
H        1.46010000      -1.26630000       3.08390000
H        0.45270000       0.66570000       4.39670000
H       -0.19130000       1.37250000       2.83840000
H       -1.33050000      -0.64870000       2.45810000
