17
Properties=species:S:1:pos:R:3 gdb_82675=T pbc="F F F"
C        0.02130000       1.61710000      -0.02330000
C        0.08900000       0.09780000      -0.00440000
C        1.13120000      -0.69780000      -0.84920000
C        2.48680000      -0.22120000      -0.29980000
N        2.17440000      -0.87740000       1.01510000
C        1.19740000      -1.74880000       0.32310000
C        0.67980000      -0.65820000       1.19760000
C        0.16380000      -0.71380000       2.52630000
N       -0.30190000      -0.73640000       3.58510000
H        0.98390000       2.08410000       0.19870000
H       -0.31390000       1.97540000      -1.00240000
H       -0.69590000       1.97250000       0.72370000
H       -0.90210000      -0.32610000      -0.19660000
H        0.95420000      -0.88890000      -1.90520000
H        3.33350000      -0.75620000      -0.73580000
H        2.70640000       0.84930000      -0.25870000
H        1.14870000      -2.82560000       0.41370000
