16
Properties=species:S:1:pos:R:3 gdb_31851=T pbc="F F F"
C       -0.06410000       1.38900000       0.08590000
O        0.00160000      -0.02180000      -0.00080000
C        0.63590000      -0.55410000      -1.08140000
C        1.23130000       0.14660000      -2.12740000
N        1.83360000      -0.46960000      -3.14780000
C        1.84460000      -1.80590000      -3.11990000
N        2.51490000      -2.45200000      -4.13020000
N        1.28770000      -2.58200000      -2.17140000
C        0.69560000      -1.94860000      -1.17050000
H        0.93660000       1.83910000       0.13030000
H       -0.61130000       1.82210000      -0.76210000
H       -0.59940000       1.61380000       1.00970000
H        1.22820000       1.23210000      -2.16140000
H        2.67290000      -1.91020000      -4.96410000
H        2.27440000      -3.42090000      -4.26130000
H        0.23560000      -2.55260000      -0.39110000
