19
Properties=species:S:1:pos:R:3 gdb_42770=T pbc="F F F"
O       -0.01820000       0.01670000       0.06390000
C       -0.03440000       1.21130000       0.00250000
C       -1.08560000       2.32990000       0.05580000
C       -0.00480000       3.03290000       0.98800000
C        1.00770000       2.33520000       0.02220000
C        2.44810000       2.07930000      -0.44580000
C        1.87340000       2.17910000      -1.91230000
C        0.69790000       3.01770000      -1.31810000
C       -0.85770000       2.90710000      -1.37930000
H       -2.10420000       2.15780000       0.39750000
H        0.02090000       4.12490000       0.97940000
H       -0.04840000       2.65090000       2.00970000
H        3.13160000       2.90420000      -0.22750000
H        2.90160000       1.13460000      -0.13890000
H        2.49980000       2.65780000      -2.66730000
H        1.55370000       1.19850000      -2.27400000
H        1.00760000       4.06740000      -1.28230000
H       -1.23720000       2.22020000      -2.14230000
H       -1.33750000       3.87760000      -1.53010000
