17
Properties=species:S:1:pos:R:3 gdb_41236=T pbc="F F F"
C        0.08510000       1.47730000      -0.17730000
O        1.51600000       1.45220000       0.12100000
C        1.30750000       0.24190000       0.91000000
C        1.90300000      -1.13650000       0.76150000
C        0.61540000      -2.02680000       0.89990000
C       -0.65350000      -1.13130000       0.96210000
C        0.01120000      -0.01980000       0.14730000
O        0.44930000      -0.71390000      -1.03920000
C        1.23020000      -1.72460000      -0.44490000
H       -0.45990000       2.12830000       0.51660000
H       -0.11580000       1.75440000      -1.21400000
H        1.17390000       0.51710000       1.96330000
H        2.85660000      -1.47070000       1.14580000
H        0.66040000      -3.00370000       1.36150000
H       -1.50540000      -1.61260000       0.47570000
H       -0.92510000      -0.82140000       1.97300000
H        1.66090000      -2.44030000      -1.13080000
