16
Properties=species:S:1:pos:R:3 gdb_105571=T pbc="F F F"
C        0.11250000       1.56240000      -0.00570000
O        0.13050000       0.13680000       0.10310000
C        0.56860000      -0.54000000      -1.03320000
C        0.38110000      -2.08880000      -0.93880000
C       -0.33020000      -2.12460000      -2.32350000
C       -0.43910000      -0.60060000      -2.25550000
O       -1.12980000       0.22690000      -2.76390000
C        1.92070000      -0.15330000      -1.46490000
N        2.97430000       0.15110000      -1.83230000
H        1.12200000       1.95820000      -0.17250000
H       -0.54640000       1.88810000      -0.81640000
H       -0.26650000       1.92950000       0.94910000
H        1.29620000      -2.66990000      -0.83920000
H       -0.29340000      -2.30650000      -0.10970000
H        0.32910000      -2.43710000      -3.13950000
H       -1.27330000      -2.66790000      -2.40700000
