20
Properties=species:S:1:pos:R:3 gdb_110770=T pbc="F F F"
C        0.36920000       1.26310000      -0.38200000
C       -0.11310000      -0.14050000       0.00280000
C        0.54260000      -0.64360000       1.27340000
C        0.69990000      -2.11350000       1.64430000
C        0.61520000      -3.15730000       0.54630000
C        1.72120000      -2.77730000      -0.42750000
N        1.94490000      -3.33100000      -1.53840000
O        2.44500000      -1.72190000       0.07220000
C        1.90680000      -1.27960000       1.30480000
H        1.44640000       1.26320000      -0.57580000
H       -0.13730000       1.61980000      -1.28390000
H        0.17300000       1.98440000       0.41900000
H       -1.20080000      -0.13350000       0.14800000
H        0.07570000      -0.82600000      -0.82890000
H        0.35430000      -0.00900000       2.13800000
H        0.49370000      -2.41560000       2.66370000
H        0.80740000      -4.15970000       0.94090000
H       -0.34350000      -3.19620000       0.02270000
H        2.73710000      -2.88850000      -2.00720000
H        2.67880000      -0.98280000       2.00410000
