14
Properties=species:S:1:pos:R:3 gdb_129280=T pbc="F F F"
N       -0.16090000       1.30590000      -0.15020000
C       -0.05230000       0.04920000      -0.09680000
O        1.08630000      -0.72380000      -0.11190000
N        0.76520000      -2.13760000       0.05640000
C       -0.51850000      -2.10030000       0.11590000
O       -1.41810000      -3.05910000       0.33340000
C       -2.73060000      -2.43380000       0.21330000
C       -2.49460000      -0.89700000       0.28790000
N       -1.08360000      -0.87010000      -0.02140000
H        0.75300000       1.74930000      -0.20030000
H       -3.15610000      -2.73010000      -0.74940000
H       -3.35250000      -2.81710000       1.02210000
H       -3.08960000      -0.35160000      -0.44730000
H       -2.69650000      -0.48500000       1.28270000
