15
Properties=species:S:1:pos:R:3 gdb_124414=T pbc="F F F"
C        0.06510000       1.57560000       0.00320000
C        0.04240000       0.02930000      -0.00050000
C        0.67930000      -0.49760000      -1.21780000
N        1.16610000      -0.89970000      -2.18500000
C        0.67620000      -0.55210000       1.23210000
C        0.22970000      -1.41070000       2.18630000
C        1.33300000      -1.51110000       3.07640000
N        2.34830000      -0.77900000       2.69270000
O        1.93140000      -0.16460000       1.51420000
H        1.09280000       1.94140000       0.03380000
H       -0.42070000       1.96180000      -0.89540000
H       -0.46590000       1.94660000       0.88310000
H       -0.99830000      -0.31290000      -0.01230000
H       -0.72870000      -1.89840000       2.24610000
H        1.41970000      -2.09260000       3.98330000
