16
Properties=species:S:1:pos:R:3 gdb_27351=T pbc="F F F"
C        0.13150000       1.46690000       0.00440000
C       -0.03810000      -0.01580000      -0.03270000
C       -1.18610000      -0.70380000      -0.10450000
C       -1.21510000      -2.17680000      -0.12740000
O       -2.25890000      -2.81610000      -0.18380000
C        0.10830000      -2.77490000      -0.07000000
C        1.22080000      -2.00470000      -0.01110000
N        2.52540000      -2.43940000      -0.02570000
O        1.17850000      -0.65040000       0.01590000
H        0.73710000       1.80910000      -0.84190000
H       -0.84060000       1.96000000      -0.03530000
H        0.64730000       1.77610000       0.92020000
H       -2.13100000      -0.17620000      -0.14240000
H        0.19520000      -3.85430000      -0.08120000
H        2.66070000      -3.40360000       0.23510000
H        3.19000000      -1.80460000       0.39170000
