19
Properties=species:S:1:pos:R:3 gdb_36357=T pbc="F F F"
C       -0.07620000      -0.92690000      -0.75450000
C       -0.04620000       0.17360000      -0.27190000
C        0.01510000       1.50770000       0.31890000
C        1.43180000       2.07110000       0.32690000
C        1.96310000       2.82120000      -0.86760000
C        1.69840000       3.55840000       0.42170000
C        0.59600000       4.56760000       0.51780000
C        0.46660000       5.67620000      -0.43960000
O       -0.41520000       4.55170000      -0.49380000
H       -0.11380000      -1.89630000      -1.18540000
H       -0.64860000       2.18440000      -0.22910000
H       -0.37130000       1.46290000       1.34620000
H        2.14460000       1.43710000       0.84660000
H        2.98940000       2.66090000      -1.17760000
H        1.26320000       3.00120000      -1.67680000
H        2.56590000       3.83690000       1.01570000
H        0.20040000       4.73080000       1.52230000
H        0.00480000       6.61250000      -0.13080000
H        1.17550000       5.74830000      -1.26250000
