20
Properties=species:S:1:pos:R:3 gdb_8715=T pbc="F F F"
C       -1.48410000       0.11220000       0.13600000
C        0.04020000       0.13560000      -0.00440000
C        0.60510000      -0.62480000      -1.21440000
O        2.04180000      -0.44360000      -1.10880000
C        0.32680000      -2.13400000      -1.15490000
O        0.85310000      -2.71840000       0.01800000
C        0.16370000      -0.02420000      -2.55710000
O        0.53970000       1.33200000      -2.67380000
H       -1.98270000       0.57020000      -0.72370000
H       -1.87000000      -0.90490000       0.25520000
H       -1.78390000       0.67790000       1.02300000
H        0.38500000       1.17060000      -0.08040000
H        0.49710000      -0.29310000       0.89190000
H        2.44960000      -0.90620000      -1.85240000
H       -0.74890000      -2.33500000      -1.16340000
H        0.75060000      -2.60680000      -2.06000000
H        1.72900000      -2.32840000       0.13440000
H        0.59800000      -0.62950000      -3.37400000
H       -0.92400000      -0.07050000      -2.66870000
H        1.44170000       1.38390000      -2.33210000
