16
Properties=species:S:1:pos:R:3 gdb_42716=T pbc="F F F"
O        0.00290000       0.07880000       0.13190000
C       -0.01550000       1.25880000      -0.01010000
C       -1.19010000       2.29210000      -0.01290000
C       -0.69700000       3.07260000       1.19280000
C        0.64950000       3.09120000       1.17370000
C        1.12960000       2.32410000      -0.04580000
C        0.67990000       3.10960000      -1.29350000
N       -0.06160000       2.27630000      -2.26660000
C       -0.79780000       3.08920000      -1.27250000
H       -2.20030000       1.88940000       0.02440000
H       -1.34160000       3.49780000       1.95090000
H        1.30330000       3.53430000       1.91340000
H        2.15120000       1.94960000      -0.03730000
H        1.24520000       3.97130000      -1.62970000
H       -0.08070000       2.72890000      -3.17670000
H       -1.39610000       3.93480000      -1.59220000
