20
Properties=species:S:1:pos:R:3 gdb_99214=T pbc="F F F"
C       -0.08860000       1.50160000       0.06030000
C        0.04780000      -0.01510000      -0.05160000
C        0.74430000      -0.47030000      -1.32070000
O        1.14320000       0.30480000      -2.16280000
C        0.92470000      -1.97320000      -1.49340000
N        1.58980000      -2.24820000      -2.73790000
C        1.83150000      -3.52120000      -3.15430000
C        2.52680000      -3.64600000      -4.50070000
O        1.50880000      -4.49060000      -2.48860000
H        0.89200000       1.98380000       0.04970000
H       -0.65920000       1.90520000      -0.77970000
H       -0.59840000       1.77330000       0.98840000
H        0.60200000      -0.43010000       0.80130000
H       -0.93390000      -0.50720000      -0.01590000
H        1.48890000      -2.36990000      -0.63720000
H       -0.05620000      -2.46670000      -1.44510000
H        1.83820000      -1.43800000      -3.28570000
H        3.44310000      -4.22740000      -4.37050000
H        1.87940000      -4.20660000      -5.18050000
H        2.77460000      -2.68420000      -4.95660000
