18
Properties=species:S:1:pos:R:3 gdb_97236=T pbc="F F F"
C        0.12230000       1.42480000       0.16130000
N       -0.02240000      -0.01320000       0.02970000
C       -1.14430000      -0.60360000      -0.05880000
N       -1.16230000      -1.99760000      -0.07430000
C       -2.24850000      -2.69960000      -0.73390000
C       -3.55770000      -2.21710000      -0.12650000
N       -3.59440000      -0.76560000      -0.19460000
C       -2.51410000       0.06800000      -0.09550000
O       -2.64300000       1.27830000      -0.05860000
H        1.18630000       1.64710000       0.28790000
H       -0.24370000       1.95930000      -0.72220000
H       -0.42840000       1.82950000       1.01700000
H       -0.23220000      -2.37370000      -0.20450000
H       -2.26640000      -2.53520000      -1.82390000
H       -2.13330000      -3.77250000      -0.55810000
H       -4.40700000      -2.62040000      -0.68650000
H       -3.63500000      -2.57000000       0.91160000
H       -4.48370000      -0.28990000      -0.13820000
