23
Properties=species:S:1:pos:R:3 gdb_106623=T pbc="F F F"
C       -0.14270000       1.54940000       0.03760000
C        0.09670000       0.03340000       0.01800000
C        0.75130000      -0.47850000      -1.24820000
C        0.08050000      -0.40850000      -2.66420000
C        1.16650000      -1.46320000      -2.96780000
O        2.39450000      -0.72210000      -2.83910000
C        2.15480000       0.02640000      -1.62710000
C        0.92810000      -2.02000000      -1.54010000
C        1.99840000      -2.85570000      -0.85790000
H        0.79680000       2.10910000      -0.00980000
H       -0.75950000       1.86290000      -0.81110000
H       -0.65960000       1.85020000       0.95380000
H        0.71570000      -0.24930000       0.88050000
H       -0.86160000      -0.48470000       0.15100000
H       -0.93520000      -0.80940000      -2.66990000
H        0.13500000       0.53070000      -3.22000000
H        1.20240000      -2.07240000      -3.86990000
H        2.18750000       1.10110000      -1.83980000
H        2.92020000      -0.20720000      -0.87710000
H       -0.05040000      -2.50580000      -1.47380000
H        3.00070000      -2.49040000      -1.09480000
H        1.87610000      -2.85210000       0.23120000
H        1.94110000      -3.89820000      -1.18910000
