14
Properties=species:S:1:pos:R:3 gdb_16290=T pbc="F F F"
N        0.12510000       1.45170000      -0.03740000
C        0.08150000       0.01850000       0.05250000
C        0.22890000      -0.59120000       1.49510000
C       -1.12920000      -1.27000000       1.31950000
O       -2.08800000      -0.24210000       1.04900000
C       -1.29540000      -0.72270000      -0.04560000
C       -1.95180000      -1.23670000      -1.20420000
N       -2.42420000      -1.63390000      -2.18290000
H        0.01900000       1.76410000      -0.99770000
H       -0.63860000       1.85160000       0.50110000
H        0.80420000      -0.42040000      -0.63980000
H        1.06460000      -1.28920000       1.57200000
H        0.27660000       0.13510000       2.30880000
H       -1.50520000      -2.19890000       1.73000000
