20
Properties=species:S:1:pos:R:3 gdb_113304=T pbc="F F F"
C        0.18150000       1.29620000      -0.17010000
C       -0.05390000      -0.14790000       0.28420000
C       -1.49260000      -0.61330000       0.08580000
C       -1.94050000      -1.02620000      -1.32160000
C       -1.78200000      -2.08090000      -0.28780000
O       -0.72610000      -2.95950000      -0.43700000
C       -0.41790000      -3.67020000       0.75290000
C       -2.47520000       0.02840000       0.91850000
N       -3.26170000       0.53610000       1.60000000
H        1.22300000       1.58770000      -0.00600000
H       -0.03890000       1.41630000      -1.23570000
H       -0.45490000       1.99290000       0.38410000
H        0.59510000      -0.83420000      -0.26760000
H        0.20880000      -0.24790000       1.34380000
H       -2.93810000      -0.76180000      -1.64990000
H       -1.17080000      -0.97400000      -2.08390000
H       -2.68240000      -2.51470000       0.14780000
H        0.39460000      -4.35740000       0.50970000
H       -0.09470000      -2.99510000       1.55610000
H       -1.28410000      -4.24730000       1.10580000
