22
Properties=species:S:1:pos:R:3 gdb_84035=T pbc="F F F"
C       -0.26140000       1.50920000       0.21910000
N        0.04430000       0.10020000       0.03950000
C        0.53880000      -0.42750000      -1.23190000
C        0.86820000       0.40990000      -2.46050000
C        2.23370000       0.03380000      -3.06360000
C        3.43920000       0.57910000      -2.28590000
O        3.62210000       0.06200000      -0.98020000
C        2.65960000       0.49440000      -0.02970000
C        1.42430000      -0.39280000      -0.02770000
H        0.38380000       2.22310000      -0.31360000
H       -1.29090000       1.68520000      -0.11000000
H       -0.20670000       1.74470000       1.28710000
H        0.09660000      -1.39190000      -1.48300000
H        0.08060000       0.25940000      -3.20740000
H        0.86100000       1.48070000      -2.22960000
H        2.31960000      -1.05690000      -3.14350000
H        2.30500000       0.43120000      -4.08470000
H        4.35950000       0.33060000      -2.82520000
H        3.37050000       1.68070000      -2.24200000
H        3.15430000       0.43620000       0.94560000
H        2.40490000       1.54900000      -0.20270000
H        1.56950000      -1.32450000       0.51780000
