17
Properties=species:S:1:pos:R:3 gdb_22279=T pbc="F F F"
N       -0.56530000       1.31270000       0.84820000
C       -0.07160000       0.39400000      -0.02940000
O        1.07410000       0.43170000      -0.44040000
C       -1.04150000      -0.68790000      -0.46790000
C       -1.13060000      -0.91230000      -2.01900000
C       -0.92940000      -2.38590000      -1.75190000
C       -0.51180000      -2.15650000      -0.31620000
N       -1.17780000      -3.38830000      -2.48240000
O       -0.90950000      -4.58940000      -1.79490000
H        0.04840000       2.04120000       1.17500000
H       -1.50520000       1.27510000       1.19940000
H       -2.03100000      -0.56870000      -0.02040000
H       -2.05180000      -0.60980000      -2.52100000
H       -0.26950000      -0.46010000      -2.52080000
H        0.57540000      -2.17340000      -0.19240000
H       -0.97690000      -2.79030000       0.44130000
H       -1.14770000      -5.25330000      -2.45060000
