21
Properties=species:S:1:pos:R:3 gdb_98897=T pbc="F F F"
C       -0.21630000       1.37920000       0.05160000
O       -0.19500000      -0.04540000       0.19990000
C        0.80860000      -0.53190000       0.96180000
O        1.62980000       0.17040000       1.49950000
C        0.78070000      -2.04430000       0.99950000
C        1.71850000      -2.65290000      -0.07670000
C        1.98020000      -4.06780000       0.45470000
C        2.18810000      -3.85150000       1.96630000
C        1.28760000      -2.64040000       2.33990000
H        0.70580000       1.73360000      -0.41640000
H       -1.07520000       1.59970000      -0.58260000
H       -0.32320000       1.86730000       1.02370000
H       -0.24150000      -2.37030000       0.78970000
H        1.28010000      -2.62750000      -1.07780000
H        2.65590000      -2.08420000      -0.10420000
H        1.09900000      -4.69660000       0.27650000
H        2.83110000      -4.55530000      -0.02990000
H        1.95330000      -4.74390000       2.55250000
H        3.23780000      -3.61000000       2.16350000
H        1.85150000      -1.88210000       2.88690000
H        0.44440000      -2.93730000       2.96940000
