21
Properties=species:S:1:pos:R:3 gdb_63909=T pbc="F F F"
C        0.16450000       1.46000000      -0.07970000
C       -0.08430000      -0.04650000       0.03130000
C       -1.59330000      -0.35040000       0.06640000
O        0.49710000      -0.58980000      -1.17000000
C        0.69700000      -1.97270000      -1.20810000
C        2.12110000      -2.44940000      -1.09840000
C        1.14420000      -2.65480000       0.05270000
C        1.18640000      -1.80040000       1.26370000
C        0.59910000      -0.60590000       1.26460000
H        1.23770000       1.66570000      -0.10920000
H       -0.28660000       1.84630000      -0.99800000
H       -0.27180000       1.98780000       0.77370000
H       -2.08250000       0.07360000      -0.81610000
H       -1.76730000      -1.42990000       0.08160000
H       -2.05840000       0.07620000       0.96100000
H        0.02310000      -2.49740000      -1.88300000
H        2.42760000      -3.31950000      -1.66890000
H        2.87240000      -1.67690000      -0.98170000
H        0.80940000      -3.67640000       0.21180000
H        1.68670000      -2.18170000       2.15010000
H        0.58710000       0.01760000       2.15440000
