13
Properties=species:S:1:pos:R:3 gdb_132230=T pbc="F F F"
F        0.08230000       0.05580000       0.00220000
C       -0.06040000       1.36930000       0.01130000
C       -1.24670000       1.98760000       0.03090000
C       -1.28380000       3.44060000       0.03920000
N       -2.38680000       4.08580000       0.05790000
N       -0.00430000       4.04220000       0.02490000
C        1.22880000       3.42340000       0.00470000
O        2.28610000       4.01060000      -0.00650000
N        1.14020000       2.03300000      -0.00160000
H       -2.17410000       1.43760000       0.04060000
H       -2.23800000       5.09580000       0.06130000
H        0.04840000       5.05070000       0.02970000
H        2.00790000       1.52030000      -0.01620000
