14
Properties=species:S:1:pos:R:3 gdb_104564=T pbc="F F F"
O        0.08640000       1.48560000      -0.07400000
C        0.12070000       0.10300000      -0.30380000
C       -1.24890000      -0.54060000      -0.07480000
C       -1.27690000      -2.07620000       0.12300000
C       -1.63570000      -1.72300000       1.56530000
O       -1.85040000      -2.28160000       2.58570000
O       -1.63560000      -0.35770000       1.33800000
C       -2.27760000      -0.00050000      -0.96210000
N       -3.08050000       0.39250000      -1.69310000
H       -0.18360000       1.62550000       0.84170000
H        0.42610000      -0.04660000      -1.34400000
H        0.84240000      -0.41600000       0.34620000
H       -2.05800000      -2.61150000      -0.41660000
H       -0.31850000      -2.58330000      -0.00070000
