17
Properties=species:S:1:pos:R:3 gdb_44237=T pbc="F F F"
O       -0.48300000       0.39120000      -0.58370000
C       -0.13510000       1.41660000      -0.09420000
O       -0.92150000       2.34760000       0.55020000
C        0.23730000       3.20690000       0.82960000
C        1.15790000       2.20770000       0.08520000
C        1.38250000       3.27130000      -1.04220000
C        0.47670000       4.24230000      -0.25940000
C       -0.51630000       5.23690000      -0.77930000
C        0.70730000       5.71060000      -0.03480000
H        0.28340000       3.46880000       1.88580000
H        2.01630000       1.69200000       0.50840000
H        2.42350000       3.59680000      -1.10420000
H        1.04650000       2.97210000      -2.03780000
H       -0.55280000       5.39150000      -1.85260000
H       -1.48040000       5.29530000      -0.28580000
H        0.57940000       6.09750000       0.97130000
H        1.50180000       6.18810000      -0.59910000
