19
Properties=species:S:1:pos:R:3 gdb_38672=T pbc="F F F"
C        0.03750000       1.49230000       0.12010000
C        1.31370000       0.71250000      -0.01950000
O        1.69260000       0.11050000       1.21780000
C        0.45830000      -0.69570000       1.20020000
C        0.74820000      -2.14640000       0.99370000
C        0.52110000      -2.77270000      -0.16220000
C       -0.03990000      -2.12760000      -1.40430000
C       -0.73900000      -0.77940000      -1.13780000
C       -0.01680000      -0.00500000      -0.07650000
H       -0.21430000       1.94480000       1.07610000
H       -0.24920000       2.07230000      -0.75320000
H        2.08850000       0.89930000      -0.75490000
H       -0.12070000      -0.51720000       2.11580000
H        1.18280000      -2.68160000       1.83400000
H        0.77920000      -3.82630000      -0.24960000
H        0.78660000      -1.97980000      -2.11470000
H       -0.73140000      -2.81840000      -1.90200000
H       -0.81600000      -0.19990000      -2.06420000
H       -1.76880000      -0.96600000      -0.80390000
