16
Properties=species:S:1:pos:R:3 gdb_67912=T pbc="F F F"
O       -0.08450000       1.41100000      -0.07180000
C        0.02020000       0.02570000       0.00730000
C       -1.33950000      -0.71330000      -0.02860000
C       -0.90480000      -1.51100000       1.22000000
O       -1.43530000      -2.34180000       1.89470000
C        0.44490000      -0.75630000       1.31590000
C        1.62050000      -1.36620000       0.51340000
N        1.03700000      -2.10300000      -0.63340000
C        1.22600000      -0.63570000      -0.72280000
H        0.78210000       1.79630000       0.10070000
H       -2.16080000      -0.02640000       0.20090000
H       -1.58280000      -1.30660000      -0.91070000
H        0.69830000      -0.25160000       2.24880000
H        2.59680000      -1.62950000       0.90030000
H        1.80330000      -2.54590000      -1.13920000
H        1.81970000      -0.19320000      -1.51540000
