20
Properties=species:S:1:pos:R:3 gdb_40717=T pbc="F F F"
C       -0.33060000       1.05860000      -0.41400000
C        1.06350000       1.06940000       0.11360000
N        0.26580000      -0.14890000       0.13950000
C       -0.17940000      -0.66180000       1.41970000
C       -0.70850000       0.24420000       2.59290000
C       -1.80110000      -0.80700000       2.79470000
C       -2.21730000      -1.46620000       4.03260000
O       -3.08070000      -0.55110000       3.33920000
C       -1.53450000      -1.42200000       1.42170000
H       -1.08330000       1.59460000       0.16000000
H       -0.51520000       1.03500000      -1.48430000
H        1.91480000       1.06780000      -0.56160000
H        1.22680000       1.59590000       1.05270000
H        0.62130000      -1.30580000       1.79630000
H       -0.03070000       0.44690000       3.42500000
H       -1.14100000       1.18820000       2.24780000
H       -2.53290000      -2.50890000       4.01350000
H       -1.83810000      -1.11260000       4.99110000
H       -2.21430000      -1.00890000       0.66960000
H       -1.51400000      -2.50970000       1.32990000
