20
Properties=species:S:1:pos:R:3 gdb_86249=T pbc="F F F"
C       -0.46560000       1.60520000      -0.01930000
N       -0.21380000       0.18000000       0.01520000
C       -1.40640000      -0.67570000       0.01080000
C       -0.96590000      -1.99960000       0.65940000
O       -0.41810000      -2.91800000      -0.26000000
C        0.04360000      -1.50970000       1.71670000
C        0.72410000      -0.30430000       1.05090000
C        1.95300000      -0.66030000       0.22260000
O        2.24640000      -1.77950000      -0.13080000
H        0.47430000       2.15970000      -0.09860000
H       -1.06770000       1.85180000      -0.89940000
H       -1.00560000       1.97100000       0.87510000
H       -2.21920000      -0.22090000       0.60620000
H       -1.77610000      -0.83770000      -1.00640000
H       -1.82350000      -2.49910000       1.12120000
H        0.52820000      -2.73270000      -0.35370000
H       -0.48480000      -1.17880000       2.61550000
H        0.74750000      -2.29480000       1.99970000
H        0.97610000       0.48790000       1.76920000
H        2.54220000       0.21300000      -0.12970000
