21
Properties=species:S:1:pos:R:3 gdb_79892=T pbc="F F F"
C       -0.23450000       1.58510000      -0.04890000
C        0.00190000       0.08310000       0.01090000
C        1.19830000      -0.59070000      -0.72550000
C        2.15000000      -0.06160000       0.39430000
C        3.44220000      -0.84780000       0.61460000
C        3.08900000      -2.26030000       1.08030000
O        1.96370000      -2.76730000       0.37650000
C        0.94750000      -1.81770000       0.20360000
C        0.86040000      -0.56460000       1.13930000
H        0.67090000       2.17740000       0.10400000
H       -0.65180000       1.86520000      -1.02230000
H       -0.95900000       1.88790000       0.71520000
H       -0.94900000      -0.44030000      -0.15310000
H        1.39700000      -0.60920000      -1.79930000
H        2.32100000       1.01590000       0.40210000
H        4.01810000      -0.87390000      -0.31900000
H        4.07450000      -0.36400000       1.36790000
H        3.90430000      -2.97170000       0.92270000
H        2.86390000      -2.24080000       2.15830000
H        0.01880000      -2.36940000       0.03360000
H        0.65540000      -0.54250000       2.21170000
