18
Properties=species:S:1:pos:R:3 gdb_36460=T pbc="F F F"
C       -0.38840000      -1.13780000      -0.56410000
C       -0.23970000       0.01150000      -0.24030000
C       -0.02840000       1.38610000       0.16180000
C        0.17710000       1.71500000       1.67660000
C        1.27780000       2.73190000       1.27570000
C        1.35740000       2.07390000      -0.13060000
C        2.51480000       1.07810000      -0.29950000
C        3.80730000       1.75600000      -0.37600000
N        4.82010000       2.31000000      -0.43170000
H       -0.53510000      -2.15000000      -0.85050000
H       -0.82450000       2.01610000      -0.24820000
H       -0.69540000       2.09320000       2.21200000
H        0.57470000       0.85610000       2.22130000
H        0.90050000       3.75590000       1.22380000
H        2.19760000       2.73450000       1.86440000
H        1.35260000       2.76080000      -0.97960000
H        2.54130000       0.36850000       0.53520000
H        2.36960000       0.48050000      -1.20580000
