18
Properties=species:S:1:pos:R:3 gdb_123734=T pbc="F F F"
C       -0.13910000       1.46450000      -0.02730000
C        1.40150000       1.49310000      -0.20750000
C        1.47570000       0.13100000       0.55420000
C       -0.04130000      -0.06140000       0.23460000
C        2.46340000      -0.90100000       0.14870000
N        3.34760000      -1.49730000       0.93570000
C        3.99930000      -2.34280000       0.09090000
N        3.58690000      -2.31770000      -1.16470000
N        2.60200000      -1.38710000      -1.10810000
H       -0.44920000       2.00740000       0.86970000
H       -0.75490000       1.79780000      -0.86490000
H        1.68790000       1.38060000      -1.25810000
H        1.96180000       2.32980000       0.21470000
H        1.61860000       0.30240000       1.62270000
H       -0.66290000      -0.49810000       1.01890000
H       -0.18710000      -0.63950000      -0.68360000
H        4.79920000      -2.99440000       0.40970000
H        2.09380000      -1.15350000      -1.94480000
