15
Properties=species:S:1:pos:R:3 gdb_25585=T pbc="F F F"
O       -0.06920000      -0.08950000      -0.00190000
C        0.07870000       0.99680000       0.51960000
N        1.22290000       1.71980000       0.46450000
C        2.38640000       1.23110000      -0.24300000
C        3.47880000       2.23980000      -0.12620000
N        3.44210000       3.37650000       0.49300000
C        4.70790000       3.92080000       0.29590000
C        5.44300000       3.06210000      -0.44390000
O        4.66050000       1.97170000      -0.72340000
H       -0.71310000       1.51130000       1.09790000
H        1.30260000       2.62040000       0.91350000
H        2.71550000       0.26640000       0.16530000
H        2.15210000       1.04610000      -1.29960000
H        4.98460000       4.88080000       0.70050000
H        6.44450000       3.04850000      -0.83640000
