23
Properties=species:S:1:pos:R:3 gdb_92278=T pbc="F F F"
C       -0.73730000       1.38360000       0.13660000
C       -0.00550000       0.05160000      -0.01250000
C        1.15420000       0.05930000      -1.02280000
C        1.92530000      -1.24460000      -0.74280000
C        3.45630000      -1.17560000      -0.98600000
C        4.03960000      -1.12220000       0.40560000
C        3.12290000      -1.30780000       1.35390000
C        1.73260000      -1.48900000       0.79810000
C        0.67880000      -0.45050000       1.27510000
H       -0.04590000       2.17510000       0.44960000
H       -1.19660000       1.69630000      -0.80740000
H       -1.53260000       1.32120000       0.88730000
H       -0.72920000      -0.71150000      -0.33500000
H        0.81990000       0.14380000      -2.06200000
H        1.80130000       0.92420000      -0.81950000
H        1.47720000      -2.05840000      -1.31980000
H        3.82630000      -2.05400000      -1.53180000
H        3.73970000      -0.30430000      -1.59130000
H        5.09820000      -0.96450000       0.58500000
H        3.32480000      -1.32360000       2.42050000
H        1.36650000      -2.50350000       1.00050000
H        1.18020000       0.39260000       1.76770000
H       -0.03200000      -0.86560000       1.99620000
