16
Properties=species:S:1:pos:R:3 gdb_131539=T pbc="F F F"
O        0.12080000       1.44740000       0.03980000
C        0.07530000       0.02270000      -0.01490000
C        0.64580000      -0.67260000       1.28580000
N       -0.47410000      -1.39010000       1.97440000
C       -1.55090000      -1.23510000       1.10840000
C       -1.30790000      -0.54910000      -0.05820000
C       -2.52850000      -0.62170000      -0.76630000
N       -3.44950000      -1.29860000      -0.08530000
N       -2.82030000      -1.68060000       1.07440000
H       -0.66380000       1.73590000       0.51910000
H        0.70460000      -0.23770000      -0.87070000
H        1.41630000      -1.40310000       1.02170000
H        1.09530000       0.08090000       1.93730000
H       -0.63550000      -1.08960000       2.92800000
H       -2.78810000      -0.21280000      -1.73210000
H       -3.32700000      -2.23400000       1.74290000
