20
Properties=species:S:1:pos:R:3 gdb_55284=T pbc="F F F"
C       -0.77520000       1.34030000       0.26980000
C       -0.28050000      -0.09550000       0.15710000
C       -1.41970000      -1.08430000      -0.05120000
O        0.70130000      -0.21520000      -0.90840000
C        1.75640000      -0.53480000       0.01890000
C        0.79300000      -0.55530000       1.21540000
C        1.11360000       0.40060000       2.34970000
N        0.51370000       0.09980000       3.53870000
O        1.81950000       1.38270000       2.20950000
H        0.05640000       2.02700000       0.43720000
H       -1.28180000       1.62040000      -0.65900000
H       -1.48740000       1.44720000       1.09540000
H       -1.98170000      -0.82460000      -0.95400000
H       -1.03500000      -2.10110000      -0.17100000
H       -2.11230000      -1.06760000       0.79790000
H        2.24280000      -1.48640000      -0.22280000
H        2.50360000       0.26240000       0.08700000
H        0.57790000      -1.55670000       1.59670000
H       -0.01360000      -0.74370000       3.67820000
H        0.68930000       0.69960000       4.32820000
