20
Properties=species:S:1:pos:R:3 gdb_53144=T pbc="F F F"
C        0.51850000       1.46950000      -0.30600000
C        0.26810000       0.03580000      -0.28030000
C        0.04110000      -1.14850000      -0.26140000
C       -0.11750000      -2.57700000      -0.27770000
C       -0.40400000      -3.39560000       0.92560000
C       -1.33080000      -2.66060000       1.89110000
C       -2.37500000      -2.68580000       0.73790000
C       -3.10970000      -1.44330000       0.26930000
N       -1.39840000      -3.34880000      -0.21590000
H        1.27800000       1.75690000       0.42960000
H        0.87130000       1.79290000      -1.29150000
H       -0.39240000       2.03490000      -0.07920000
H        0.53050000      -3.06690000      -1.00220000
H        0.16670000      -4.29150000       1.15140000
H       -1.62790000      -3.24090000       2.76600000
H       -0.97150000      -1.67960000       2.21470000
H       -3.11210000      -3.46720000       0.94910000
H       -2.43570000      -0.60650000       0.08520000
H       -3.65320000      -1.65890000      -0.65680000
H       -3.84240000      -1.13890000       1.02530000
