18
Properties=species:S:1:pos:R:3 gdb_32605=T pbc="F F F"
C        0.09480000       1.56600000      -0.10780000
C       -0.07430000       0.05900000       0.09690000
N        0.70270000      -0.45790000       1.20970000
C        2.08290000      -0.67720000       1.26240000
C        2.37070000      -1.12330000       2.49280000
C        3.62310000      -1.53740000       3.16680000
O        1.19970000      -1.18600000       3.22920000
C        0.15070000      -0.76590000       2.43270000
O       -0.99730000      -0.70490000       2.79020000
H        1.13830000       1.82620000      -0.31180000
H       -0.50960000       1.90020000      -0.95660000
H       -0.22780000       2.11350000       0.78200000
H       -1.11580000      -0.18190000       0.32290000
H        0.20770000      -0.48790000      -0.81020000
H        2.72550000      -0.50470000       0.41580000
H        3.82300000      -0.91930000       4.04940000
H        3.56890000      -2.57910000       3.50310000
H        4.46640000      -1.44010000       2.47900000
