15
Properties=species:S:1:pos:R:3 gdb_49500=T pbc="F F F"
O       -0.05300000      -0.06100000      -0.41470000
C       -0.05690000       1.08290000      -0.03590000
C        1.19630000       1.91470000       0.02250000
C        1.28850000       3.35060000      -0.59180000
C        0.36520000       3.91970000       0.50670000
C        1.43160000       2.97810000       1.14450000
O        2.45150000       3.61670000       0.28750000
C        1.73000000       2.74440000       2.59230000
O        1.06100000       2.01650000       3.27840000
H       -1.00070000       1.57090000       0.28590000
H        2.07480000       1.30310000      -0.18570000
H        1.38150000       3.62530000      -1.64140000
H        0.51980000       4.97610000       0.72480000
H       -0.68360000       3.62430000       0.53880000
H        2.60730000       3.30500000       2.98020000
