15
Properties=species:S:1:pos:R:3 gdb_128802=T pbc="F F F"
C       -0.10920000       0.52120000       0.36150000
O        0.96150000       0.38290000      -0.55580000
C        0.67810000      -0.46330000      -1.63420000
C        0.56470000      -1.91620000      -1.25580000
N       -0.19730000      -2.81880000      -1.80090000
C        0.15600000      -3.94040000      -1.09080000
O       -0.38890000      -5.13270000      -1.32350000
N        1.05910000      -3.76610000      -0.15980000
O        1.33800000      -2.38760000      -0.27910000
H       -1.01610000       0.89690000      -0.13530000
H       -0.34630000      -0.42730000       0.86230000
H        0.21260000       1.24480000       1.11260000
H       -0.25020000      -0.19000000      -2.15730000
H        1.50770000      -0.35100000      -2.34180000
H       -1.02250000      -5.02050000      -2.04280000
