15
Properties=species:S:1:pos:R:3 gdb_10437=T pbc="F F F"
C        0.33970000      -1.25690000      -0.11310000
C        0.19450000      -0.06420000      -0.06850000
C        0.00750000       1.36100000      -0.03960000
C       -1.09810000       1.88690000      -0.96000000
C       -2.43630000       1.45200000      -0.55480000
N       -3.49360000       1.12000000      -0.22890000
C        0.24950000       2.09690000       1.26830000
C        1.23410000       2.24300000       0.14510000
H        0.46130000      -2.31150000      -0.14180000
H       -1.08120000       2.98220000      -0.96690000
H       -0.91800000       1.55600000      -1.98860000
H       -0.40860000       2.92950000       1.49220000
H        0.52990000       1.49880000       2.12620000
H        2.18990000       1.74080000       0.22950000
H        1.26090000       3.17880000      -0.40290000
