17
Properties=species:S:1:pos:R:3 gdb_26425=T pbc="F F F"
C       -0.11060000       1.55990000      -0.05910000
C        0.05050000       0.02590000      -0.00570000
C       -1.33410000      -0.62150000       0.04580000
O       -1.79070000      -1.17560000       1.00990000
C        0.81610000      -0.51500000      -1.16940000
C        1.84190000      -1.40320000      -1.28290000
C        2.11670000      -1.53430000      -2.68350000
C        1.23350000      -0.72180000      -3.31670000
O        0.43250000      -0.09390000      -2.41260000
H        0.87050000       2.04160000      -0.08440000
H       -0.65790000       1.86320000      -0.95570000
H       -0.65380000       1.91830000       0.81970000
H        0.56850000      -0.26670000       0.91180000
H       -1.91040000      -0.53020000      -0.90280000
H        2.34260000      -1.90210000      -0.46790000
H        2.87070000      -2.14970000      -3.14830000
H        1.04890000      -0.48030000      -4.35030000
