13
Properties=species:S:1:pos:R:3 gdb_3065=T pbc="F F F"
O        0.21430000       1.14730000       0.65620000
C        0.00130000       0.13830000      -0.31960000
C       -1.37600000      -0.35050000      -0.36550000
C       -2.50930000      -0.76070000      -0.34790000
C       -3.87280000      -1.21360000      -0.33980000
C       -4.25940000      -2.51850000      -0.91420000
O       -4.19560000      -2.34150000       0.49330000
H       -0.11090000       0.80920000       1.49730000
H        0.27030000       0.59110000      -1.28050000
H        0.68010000      -0.71690000      -0.17170000
H       -4.62750000      -0.42830000      -0.32260000
H       -5.25780000      -2.63530000      -1.33400000
H       -3.48690000      -3.15250000      -1.34500000
