14
Properties=species:S:1:pos:R:3 gdb_34064=T pbc="F F F"
N       -0.04840000      -1.12870000      -0.16010000
C       -0.02440000       0.02530000      -0.08220000
C       -0.01340000       1.45430000       0.07710000
C       -1.36390000       2.26630000       0.24260000
C       -0.43110000       3.34070000      -0.26760000
N        0.13200000       4.14360000       0.54130000
C        1.51860000       3.62530000       0.67290000
C        1.35260000       2.21500000       0.09180000
N        0.43990000       2.36650000      -1.02660000
H       -2.09130000       1.84490000      -0.45460000
H       -1.78350000       2.44030000       1.23120000
H        2.28170000       4.17300000       0.10250000
H        1.78590000       3.66980000       1.73210000
H        2.21770000       1.57450000      -0.06530000
