20
Properties=species:S:1:pos:R:3 gdb_17351=T pbc="F F F"
C       -1.45760000      -0.62980000       2.43410000
C       -0.47310000      -1.70600000       2.04090000
N        0.26810000      -1.51800000       0.78480000
C        1.01160000      -1.54960000       2.06160000
C        1.70300000      -0.28930000       2.47340000
C        2.64400000      -0.29340000       3.63330000
N        3.14130000      -0.07300000       2.28290000
C        3.96210000      -1.11130000       1.67880000
H       -1.10730000       0.35970000       2.13420000
H       -2.42200000      -0.80150000       1.94390000
H       -1.62570000      -0.62860000       3.51640000
H       -0.82100000      -2.71680000       2.25550000
H        0.37410000      -2.39740000       0.28700000
H        1.56130000      -2.46120000       2.28650000
H        1.12350000       0.61060000       2.28570000
H        2.69760000       0.55180000       4.31520000
H        2.84530000      -1.26000000       4.09740000
H        3.75700000      -2.13280000       2.03710000
H        3.82600000      -1.09420000       0.59290000
H        5.01310000      -0.89190000       1.89330000
