22
Properties=species:S:1:pos:R:3 gdb_99258=T pbc="F F F"
C       -0.11650000       1.52820000       0.09660000
C        0.01310000       0.00010000       0.05950000
C        0.67680000      -0.47830000      -1.23850000
C        0.79590000      -0.52660000       1.25750000
O        0.07490000      -0.18420000       2.45900000
C        0.64560000      -0.55020000       3.62070000
O        1.69680000      -1.13510000       3.70610000
C       -0.21300000      -0.12370000       4.80980000
N        0.30540000      -0.50080000       6.11260000
H        0.86900000       2.00410000       0.02340000
H       -0.72240000       1.88920000      -0.74030000
H       -0.58450000       1.86210000       1.02590000
H       -0.99410000      -0.43430000       0.11490000
H        1.69570000      -0.08370000      -1.32930000
H        0.73570000      -1.57080000      -1.28360000
H        0.11170000      -0.13630000      -2.11070000
H        0.91360000      -1.61440000       1.21590000
H        1.79900000      -0.08750000       1.30720000
H       -0.33870000       0.96460000       4.75870000
H       -1.21660000      -0.54190000       4.67060000
H        0.41510000      -1.51090000       6.14370000
H        1.25080000      -0.13900000       6.20650000
