22
Properties=species:S:1:pos:R:3 gdb_83276=T pbc="F F F"
C       -0.45750000       1.42270000       0.12340000
C       -0.07240000      -0.03180000      -0.02500000
C        0.61730000      -0.58630000      -1.22480000
C        1.08570000       0.24500000      -2.41770000
C        2.22620000       1.23450000      -2.10480000
C        3.17760000       0.66620000      -1.05190000
O        4.22510000       1.56930000      -0.72680000
C        2.42050000       0.40400000       0.24970000
N        1.30600000      -0.53570000       0.07700000
H       -1.51090000       1.54750000      -0.14910000
H       -0.34850000       1.75360000       1.16300000
H        0.12570000       2.09760000      -0.50480000
H       -0.77700000      -0.69590000       0.47690000
H        0.34760000      -1.60350000      -1.50780000
H        1.44420000      -0.46110000      -3.17530000
H        0.24010000       0.77160000      -2.87610000
H        2.77400000       1.45860000      -3.02890000
H        1.84670000       2.19230000      -1.73150000
H        3.59110000      -0.29000000      -1.41560000
H        4.71680000       1.75810000      -1.53230000
H        3.11230000      -0.01980000       0.98510000
H        2.09310000       1.37380000       0.64750000
