23
Properties=species:S:1:pos:R:3 gdb_101197=T pbc="F F F"
C       -1.03330000       0.22350000      -2.14770000
O       -1.26770000      -0.85010000      -1.26980000
C       -1.31250000      -0.49730000       0.11070000
C       -2.59810000       0.25400000       0.47430000
C       -1.20500000      -1.79570000       0.87910000
C        0.05840000      -2.57380000       1.11400000
C        1.26030000      -1.65810000       1.37940000
C        0.49050000      -1.01780000       2.58020000
C       -0.70350000      -1.94020000       2.29060000
H       -0.90010000      -0.20080000      -3.14650000
H       -1.86920000       0.93790000      -2.18580000
H       -0.12090000       0.78000000      -1.87800000
H       -0.45040000       0.14980000       0.33590000
H       -2.61530000       0.47220000       1.54660000
H       -2.68270000       1.20370000      -0.06150000
H       -3.47410000      -0.35650000       0.23180000
H       -2.05070000      -2.45110000       0.67590000
H        0.12780000      -3.61770000       0.83190000
H        2.14270000      -2.20990000       1.71030000
H        1.55860000      -0.99640000       0.56000000
H        0.96770000      -1.24750000       3.53540000
H        0.30410000       0.06070000       2.54490000
H       -1.30570000      -2.42240000       3.05210000
