18
Properties=species:S:1:pos:R:3 gdb_85227=T pbc="F F F"
C       -0.07760000       1.50900000       0.01140000
C        0.15690000       0.02560000      -0.01270000
N       -0.66590000      -0.90220000       0.83080000
C        0.78210000      -0.78330000       1.07150000
C        1.49920000      -2.00180000       0.49540000
O        1.24030000      -3.17570000       1.23610000
C        1.03310000      -2.05640000      -0.98430000
C        0.52870000      -0.65090000      -1.31170000
O        0.50980000      -0.11990000      -2.39340000
H        0.77810000       2.04150000      -0.41360000
H       -0.95470000       1.77000000      -0.58850000
H       -0.23450000       1.86780000       1.03350000
H       -1.16910000      -0.33040000       1.50690000
H        1.13430000      -0.32750000       1.99140000
H        2.58250000      -1.85220000       0.54430000
H        0.27960000      -3.23050000       1.32000000
H        1.81080000      -2.36480000      -1.68450000
H        0.19890000      -2.75940000      -1.08110000
