21
Properties=species:S:1:pos:R:3 gdb_112057=T pbc="F F F"
C       -0.28010000       1.55410000       0.07920000
C       -0.36390000       0.03380000       0.24390000
C        0.76230000      -0.54770000       1.12220000
C        0.67100000      -0.09200000       2.56430000
C        0.23610000      -1.05080000       3.37980000
C       -0.01010000      -2.34840000       2.65080000
C        0.72170000      -2.11040000       1.29490000
C        0.17880000      -2.86680000       0.17750000
C       -0.26810000      -3.50640000      -0.73800000
H        0.68400000       1.85350000      -0.34810000
H       -1.06550000       1.91870000      -0.59010000
H       -0.39510000       2.07490000       1.03540000
H       -1.33500000      -0.23870000       0.67540000
H       -0.31850000      -0.44520000      -0.74000000
H        1.71860000      -0.25760000       0.66790000
H        0.89040000       0.92680000       2.86340000
H        0.04500000      -0.93340000       4.44080000
H        0.38430000      -3.22710000       3.17140000
H       -1.08280000      -2.52840000       2.50220000
H        1.76200000      -2.42580000       1.44280000
H       -0.66150000      -4.07060000      -1.54680000
