13
Properties=species:S:1:pos:R:3 gdb_129921=T pbc="F F F"
N        0.12280000       1.40380000       0.16450000
C       -0.01130000       0.02990000       0.03910000
C       -1.08580000      -0.81320000      -0.00950000
N       -0.61750000      -2.14320000      -0.02230000
C        0.73600000      -2.10250000      -0.00150000
N        1.81340000      -2.87200000      -0.02240000
N        2.84350000      -1.98430000       0.01270000
N        2.46410000      -0.73910000       0.05270000
N        1.10120000      -0.80120000       0.04660000
H        0.96570000       1.75560000      -0.27270000
H       -0.68800000       1.91780000      -0.15080000
H       -2.13780000      -0.58840000      -0.02050000
H       -1.18080000      -2.97110000      -0.08150000
