18
Properties=species:S:1:pos:R:3 gdb_16349=T pbc="F F F"
C       -0.45500000       1.40910000       0.03450000
C        0.05060000      -0.02520000      -0.05680000
C        1.37580000      -0.23990000      -0.86870000
C        2.01250000      -0.83840000       0.40090000
O        3.08240000      -1.31580000       0.66190000
C        0.75960000      -0.60320000       1.19010000
C        0.72450000      -0.14270000       2.63310000
C        0.24280000      -1.51280000       2.28240000
H        0.33480000       2.08360000       0.38280000
H       -0.79720000       1.76640000      -0.94250000
H       -1.29690000       1.49400000       0.73050000
H       -0.74930000      -0.68260000      -0.41170000
H        1.32210000      -0.92830000      -1.71640000
H        1.86210000       0.68300000      -1.20150000
H        1.68220000      -0.04190000       3.13270000
H       -0.01050000       0.61260000       2.89130000
H       -0.82540000      -1.70390000       2.29880000
H        0.86720000      -2.36230000       2.53900000
