22
Properties=species:S:1:pos:R:3 gdb_57206=T pbc="F F F"
C        0.02710000       1.69990000       0.32120000
C        0.06990000       0.20580000      -0.01740000
C        0.79120000      -0.00970000      -1.36280000
N        0.92200000      -1.31580000      -1.74920000
O        1.17670000       0.90890000      -2.05950000
C        0.66230000      -0.64530000       1.11340000
C        2.14420000      -0.44820000       1.38600000
C       -0.22840000      -0.91510000       2.29990000
C        0.09350000      -2.03480000       1.33860000
H        1.03280000       2.11210000       0.43260000
H       -0.45880000       2.25940000      -0.48010000
H       -0.52270000       1.86230000       1.25270000
H       -0.96180000      -0.14100000      -0.17150000
H        0.77440000      -2.06600000      -1.09640000
H        1.46580000      -1.49780000      -2.57730000
H        2.36630000       0.58810000       1.65970000
H        2.47580000      -1.08530000       2.21150000
H        2.74980000      -0.69730000       0.50770000
H        0.22570000      -0.94170000       3.28470000
H       -1.23690000      -0.51570000       2.28760000
H       -0.70950000      -2.38480000       0.69620000
H        0.76720000      -2.81770000       1.67230000
