16
Properties=species:S:1:pos:R:3 gdb_99354=T pbc="F F F"
C        0.08130000       1.32300000       0.00740000
O       -0.07150000      -0.10430000       0.00100000
C       -1.34350000      -0.54570000       0.01210000
O       -2.31650000       0.15370000       0.02640000
C       -1.33080000      -2.06720000       0.00380000
O       -2.65500000      -2.53190000       0.01390000
C       -2.72320000      -3.93610000       0.00720000
C       -4.12850000      -4.35220000       0.01790000
N       -5.22180000      -4.72180000       0.02600000
H        1.15550000       1.50550000      -0.00200000
H       -0.39090000       1.76290000      -0.87420000
H       -0.37360000       1.75310000       0.90290000
H       -0.78190000      -2.40910000      -0.88840000
H       -0.76520000      -2.41850000       0.88190000
H       -2.23830000      -4.36260000      -0.88650000
H       -2.22190000      -4.37190000       0.88730000
