23
Properties=species:S:1:pos:R:3 gdb_106277=T pbc="F F F"
C       -0.12020000       1.50600000       0.01840000
C        0.03860000      -0.01790000       0.06880000
C        0.78240000      -0.51680000       1.28180000
C        2.26940000      -0.26420000       1.68100000
C        1.71420000      -1.17350000       2.81820000
C        2.44080000      -1.69530000       4.02820000
C        0.44270000      -0.26480000       2.78910000
C        1.05750000      -2.00480000       1.66980000
O        0.01170000      -2.90620000       1.91690000
H        0.85370000       2.00650000       0.00300000
H       -0.66850000       1.81570000      -0.87650000
H       -0.66920000       1.87600000       0.89090000
H       -0.95060000      -0.49420000       0.04620000
H        0.56160000      -0.36560000      -0.83200000
H        3.03610000      -0.69880000       1.03100000
H        2.52470000       0.75800000       1.97100000
H        2.75460000      -0.88090000       4.69030000
H        1.79920000      -2.37030000       4.60560000
H        3.33550000      -2.25630000       3.73670000
H        0.57380000       0.75780000       3.15470000
H       -0.49480000      -0.67490000       3.18270000
H        1.75600000      -2.53810000       1.01710000
H       -0.63740000      -2.48950000       2.49270000
