17
Properties=species:S:1:pos:R:3 gdb_61294=T pbc="F F F"
N        0.55270000       0.14980000       0.86330000
C       -0.09590000       0.20910000      -0.32990000
O        0.15840000       1.02530000      -1.19370000
C       -1.22470000      -0.81650000      -0.51960000
C       -0.98520000      -2.21270000       0.07070000
O       -0.91920000      -2.20100000       1.49450000
C       -2.06080000      -3.20600000      -0.42190000
C       -1.87670000      -4.55120000       0.11770000
N       -1.73030000      -5.61660000       0.53880000
H        1.31460000       0.78920000       1.01860000
H        0.34250000      -0.57400000       1.53380000
H       -2.14460000      -0.39680000      -0.08730000
H       -1.38710000      -0.88020000      -1.59840000
H       -0.00380000      -2.58270000      -0.24300000
H       -1.77290000      -1.91120000       1.83870000
H       -3.05770000      -2.84350000      -0.13920000
H       -2.04410000      -3.25620000      -1.51610000
