17
Properties=species:S:1:pos:R:3 gdb_14395=T pbc="F F F"
C       -0.05130000       1.62190000       0.03650000
C        0.07770000       0.10830000      -0.05360000
O       -1.00280000      -0.54050000       0.59560000
C        0.44670000      -0.72410000      -1.24300000
C        1.75680000      -0.31760000      -1.94240000
C        2.57330000       0.75640000      -1.32220000
N        2.58050000      -0.57970000      -0.70530000
C        1.28090000      -0.83880000       0.02070000
H        0.27590000       2.13180000      -0.87030000
H       -1.11270000       1.84900000       0.17360000
H        0.49850000       2.03940000       0.88780000
H       -0.90240000      -0.39500000       1.54330000
H       -0.24410000      -1.43990000      -1.66880000
H        2.04440000      -0.76250000      -2.89010000
H        3.51640000       0.96690000      -1.82160000
H        2.15840000       1.60430000      -0.79910000
H        1.28900000      -1.61680000       0.77410000
