14
Properties=species:S:1:pos:R:3 gdb_132295=T pbc="F F F"
N        0.01280000       1.39080000      -0.13630000
C       -0.00020000       0.01600000      -0.05320000
C       -1.17890000      -0.69720000      -0.02690000
C       -1.21530000      -2.13040000      -0.00050000
O       -2.18880000      -2.86370000       0.02350000
N        0.08760000      -2.72210000       0.00390000
C        1.23360000      -2.01520000      -0.01740000
F        2.33490000      -2.75130000      -0.00890000
C        1.26380000      -0.66300000      -0.04580000
H        0.84260000       1.86370000       0.18410000
H       -0.84410000       1.86740000       0.09670000
H       -2.13790000      -0.19420000      -0.02880000
H        0.11800000      -3.73170000       0.02660000
H        2.20740000      -0.13800000      -0.07750000
