16
Properties=species:S:1:pos:R:3 gdb_6068=T pbc="F F F"
C       -0.10840000       1.42200000      -0.16470000
C       -0.01370000      -0.08400000      -0.05890000
O        0.99930000      -0.69450000      -0.32170000
C       -1.26780000      -0.81080000       0.40870000
N       -1.04930000      -2.23540000       0.43100000
C       -2.06000000      -3.07420000       0.00640000
N       -1.65360000      -4.38730000      -0.17940000
O       -3.19920000      -2.69770000      -0.20270000
H        0.87180000       1.84070000      -0.39400000
H       -0.81490000       1.69290000      -0.95770000
H       -0.49280000       1.85420000       0.76510000
H       -1.53530000      -0.41650000       1.40140000
H       -2.11500000      -0.56960000      -0.24550000
H       -0.09280000      -2.48630000       0.21170000
H       -0.88740000      -4.72490000       0.38310000
H       -2.42750000      -5.02910000      -0.25690000
