17
Properties=species:S:1:pos:R:3 gdb_115178=T pbc="F F F"
C        0.00400000       1.07800000      -0.58430000
O       -0.20550000      -0.31860000      -0.43820000
C       -1.32680000      -0.65630000       0.33440000
O       -2.55050000      -0.34100000      -0.30320000
C       -2.82780000      -1.33550000      -1.29190000
C       -1.99700000      -2.55510000      -0.89670000
O       -1.86620000      -3.57140000      -1.51960000
C       -1.31320000      -2.18840000       0.43830000
O       -0.07360000      -2.78240000       0.66620000
H        0.89230000       1.20470000      -1.20570000
H       -0.85390000       1.55790000      -1.06790000
H        0.17520000       1.55340000       0.39170000
H       -1.32580000      -0.11490000       1.28770000
H       -3.89960000      -1.55740000      -1.28350000
H       -2.54990000      -1.00080000      -2.29920000
H       -1.98750000      -2.48760000       1.25080000
H        0.55140000      -2.34490000       0.07450000
