18
Properties=species:S:1:pos:R:3 gdb_77486=T pbc="F F F"
C        0.02210000       1.49410000       0.02690000
C       -0.04760000       0.00180000       0.08540000
N        0.60300000      -0.91150000      -0.97760000
C        0.00260000      -1.92800000       0.01910000
C        0.14980000      -3.40720000      -0.14140000
C        0.60650000      -0.98330000       1.11700000
O        1.99040000      -0.95160000       1.24470000
C       -1.21960000      -0.99280000       0.00980000
O       -2.40030000      -1.01730000      -0.17390000
H        1.06040000       1.83400000       0.09170000
H       -0.41380000       1.87840000      -0.90060000
H       -0.53330000       1.92760000       0.86420000
H        0.07730000      -0.89500000      -1.85590000
H        1.20440000      -3.69620000      -0.09810000
H       -0.38090000      -3.92530000       0.66330000
H       -0.26720000      -3.74920000      -1.09380000
H        0.16490000      -1.02900000       2.11320000
H        2.33200000      -0.91160000       0.33890000
