19
Properties=species:S:1:pos:R:3 gdb_92638=T pbc="F F F"
C        0.16400000       1.53720000       0.02490000
C       -0.00600000       0.03230000       0.03250000
O        0.94360000      -0.66600000      -0.84460000
C        1.22820000      -1.65040000       0.18550000
C        2.66320000      -1.87390000       0.65490000
O        2.55600000      -2.41130000       1.97160000
C        2.01960000      -1.53410000       2.95420000
C        0.92160000      -0.63020000       2.44530000
C        0.53880000      -0.77610000       1.18730000
H        1.18100000       1.81200000       0.31600000
H       -0.03620000       1.93530000      -0.97460000
H       -0.54160000       2.00080000       0.72280000
H       -1.03310000      -0.23910000      -0.25470000
H        0.74430000      -2.60860000      -0.04560000
H        3.21430000      -2.61720000       0.07350000
H        3.21210000      -0.92100000       0.63580000
H        1.67840000      -2.18250000       3.77020000
H        2.82040000      -0.89500000       3.36760000
H        0.58280000       0.17360000       3.09280000
