20
Properties=species:S:1:pos:R:3 gdb_98426=T pbc="F F F"
C        0.29680000       1.37100000       0.11920000
O        0.58650000      -0.02590000      -0.00740000
C        0.08710000      -0.61720000      -1.11660000
O       -0.55700000      -0.02240000      -1.94280000
C        0.47060000      -2.07470000      -1.16550000
C        1.03100000      -2.67760000       0.10870000
N       -0.43780000      -2.89160000      -1.99830000
C        0.92180000      -2.65770000      -2.48130000
C        1.08770000      -1.88680000      -3.76740000
H        0.71100000       1.92890000      -0.72450000
H       -0.78250000       1.53930000       0.15170000
H        0.76210000       1.68730000       1.05290000
H        0.30420000      -2.62250000       0.92550000
H        1.28310000      -3.73020000      -0.05580000
H        1.93340000      -2.15600000       0.43650000
H       -0.52350000      -3.81550000      -1.58080000
H        1.63500000      -3.47340000      -2.35330000
H        0.35500000      -1.08290000      -3.83270000
H        2.09520000      -1.46220000      -3.83640000
H        0.94810000      -2.55940000      -4.62070000
