17
Properties=species:S:1:pos:R:3 gdb_34690=T pbc="F F F"
C        0.06890000      -1.21130000       0.06840000
C        0.03080000      -0.00990000       0.04260000
C       -0.01860000       1.44690000       0.00670000
C       -0.55090000       2.08500000       1.28910000
C        0.57430000       2.34790000       2.26750000
C       -0.00440000       3.48790000       1.45130000
C        1.27500000       3.50970000       0.57630000
C        1.85230000       2.36970000       1.39340000
C        1.35440000       2.11740000      -0.01400000
H        0.10320000      -2.27210000       0.09210000
H       -0.61460000       1.77040000      -0.85670000
H       -1.53850000       1.84330000       1.66160000
H        0.51790000       2.15590000       3.32950000
H       -0.59100000       4.34040000       1.76410000
H        1.75920000       4.38040000       0.15670000
H        2.86670000       2.19580000       1.72300000
H        2.06480000       1.90460000      -0.80300000
