17
Properties=species:S:1:pos:R:3 gdb_44051=T pbc="F F F"
O       -0.10160000       0.07770000       0.58040000
C       -0.09660000       1.20100000       0.18190000
C       -1.20240000       2.18000000      -0.34450000
C       -0.08550000       3.21970000      -0.62280000
C        0.32370000       4.29200000       0.43320000
C        1.45550000       3.33200000       0.96590000
C        0.98970000       2.28870000      -0.08380000
O        1.69090000       2.20490000      -1.33920000
C        0.71190000       3.11970000      -1.94060000
H       -1.75820000       1.80880000      -1.21150000
H       -1.92660000       2.46130000       0.42670000
H        0.67400000       5.24040000       0.01920000
H       -0.45880000       4.50890000       1.16420000
H        2.47520000       3.67470000       0.78050000
H        1.36980000       3.02740000       2.01110000
H        0.19250000       2.65080000      -2.78460000
H        1.19130000       4.04480000      -2.28100000
