17
Properties=species:S:1:pos:R:3 gdb_128392=T pbc="F F F"
C       -0.05520000       1.46000000      -0.24620000
N       -0.10250000       0.03010000       0.01370000
C        0.56300000      -0.53890000       1.04130000
N        0.76300000      -1.81940000       1.17380000
H        0.46040000      -2.46370000       0.44430000
C        1.35690000      -2.53970000       2.21330000
C        1.90670000      -2.15970000       3.44170000
C        2.31090000      -3.39840000       3.93950000
N        2.01770000      -4.40440000       3.07520000
N        1.42540000      -3.87040000       2.00330000
H        0.80590000       1.74890000      -0.86180000
H       -0.97190000       1.76640000      -0.75440000
H        0.00010000       1.99740000       0.70370000
H       -0.38620000      -0.56390000      -0.75160000
H        0.92110000       0.11470000       1.82730000
H        1.99550000      -1.18370000       3.89320000
H        2.79740000      -3.61120000       4.88240000
