19
Properties=species:S:1:pos:R:3 gdb_91079=T pbc="F F F"
C       -0.00530000       1.53760000       0.21500000
C        0.01620000       0.03070000       0.01830000
C        1.12340000      -0.62900000      -0.89660000
C        1.21990000      -1.82850000       0.11280000
C        2.46790000      -2.30430000       0.83520000
O        3.39810000      -1.29210000       1.20360000
C        2.42380000      -1.71310000       2.19890000
C        1.26450000      -0.76620000       2.24840000
C        0.59540000      -0.86280000       1.09410000
H        0.97730000       1.90000000       0.53340000
H       -0.27550000       2.05130000      -0.71380000
H       -0.73580000       1.82640000       0.97830000
H       -0.96610000      -0.32970000      -0.31230000
H        0.83620000      -0.86650000      -1.92320000
H        2.04200000      -0.03910000      -0.88130000
H        0.58370000      -2.66530000      -0.19270000
H        2.89820000      -3.28270000       0.63850000
H        2.85860000      -2.18620000       3.07430000
H        1.15740000      -0.00010000       3.00650000
