19
Properties=species:S:1:pos:R:3 gdb_70460=T pbc="F F F"
C       -0.00320000       1.53420000       0.13100000
C       -0.05070000       0.04080000      -0.00390000
C       -0.86880000      -0.83610000       0.86230000
N        0.59770000      -0.90740000       1.00170000
C        1.05170000      -1.76090000      -0.15360000
C        0.51950000      -0.74060000      -1.19350000
C       -0.44470000      -1.18770000      -2.30440000
C        0.20790000      -2.04920000      -3.28900000
N        0.74650000      -2.73030000      -4.05160000
H        0.97940000       1.92620000      -0.15250000
H       -0.75490000       2.01040000      -0.51000000
H       -0.20250000       1.83510000       1.16340000
H       -1.35470000      -0.36880000       1.71360000
H       -1.40150000      -1.69710000       0.46250000
H        2.13710000      -1.86770000      -0.15000000
H        0.59600000      -2.75720000      -0.16580000
H        1.34860000      -0.19190000      -1.64810000
H       -1.29760000      -1.73000000      -1.88250000
H       -0.85250000      -0.31200000      -2.82350000
