25
Properties=species:S:1:pos:R:3 gdb_108858=T pbc="F F F"
C       -0.29150000       1.48800000      -0.05730000
C        0.09960000       0.00390000       0.06830000
C        0.77130000      -0.54160000      -1.15940000
C        2.04170000      -0.94060000      -1.25500000
C        2.43200000      -1.37330000      -2.65020000
C        3.28430000      -2.64560000      -2.71210000
C        1.05030000      -1.50370000      -3.33910000
C        0.06840000      -0.63810000      -2.51030000
C       -1.35540000      -1.20560000      -2.46590000
H        0.59100000       2.10910000      -0.24010000
H       -0.99000000       1.65160000      -0.88430000
H       -0.77310000       1.84230000       0.85940000
H        0.76530000      -0.12380000       0.92920000
H       -0.80510000      -0.57920000       0.28780000
H        2.75350000      -0.92660000      -0.43390000
H        3.00820000      -0.56360000      -3.12660000
H        2.76600000      -3.48560000      -2.23640000
H        3.50040000      -2.92610000      -3.74890000
H        4.24230000      -2.50880000      -2.19860000
H        1.07080000      -1.22960000      -4.39810000
H        0.72740000      -2.55150000      -3.28350000
H        0.01050000       0.37140000      -2.94720000
H       -1.36550000      -2.19910000      -2.00290000
H       -2.03560000      -0.56300000      -1.89730000
H       -1.76430000      -1.30430000      -3.47710000
