18
Properties=species:S:1:pos:R:3 gdb_37176=T pbc="F F F"
C        0.09130000       1.40610000       0.17850000
C        1.32370000       0.61620000      -0.05850000
N       -0.03500000      -0.04670000      -0.07480000
C       -0.13050000      -0.50260000      -1.54260000
C        0.47550000       0.63520000      -2.36890000
C        1.71620000       0.25810000      -1.48470000
O        2.95230000       0.04750000      -2.16160000
C        2.39550000      -1.22350000      -2.66270000
C        1.26480000      -1.20770000      -1.58450000
H       -0.15740000       1.66800000       1.20410000
H       -0.24980000       2.13640000      -0.54540000
H        1.99490000       0.34450000       0.75070000
H       -1.09340000      -0.97180000      -1.73730000
H        0.63810000       0.36270000      -3.40970000
H        0.04470000       1.63330000      -2.33130000
H        2.11270000      -1.14970000      -3.71650000
H        3.11840000      -2.03160000      -2.53060000
H        1.47070000      -1.87340000      -0.74640000
