13
Properties=species:S:1:pos:R:3 gdb_131026=T pbc="F F F"
O       -0.01500000      -0.04840000      -0.00220000
C        0.00520000       1.14540000       0.00760000
N        1.18690000       1.91930000       0.00010000
N        2.39730000       1.31590000      -0.01850000
C        3.27620000       2.30550000      -0.02060000
C        2.65300000       3.57320000      -0.00330000
C        1.30260000       3.30690000       0.00990000
C        0.19830000       4.27520000       0.03000000
O        0.38810000       5.46930000       0.03720000
H       -0.89300000       1.78280000       0.02250000
H        4.33200000       2.07720000      -0.03450000
H        3.10190000       4.55280000      -0.00060000
H       -0.83080000       3.86340000       0.03780000
