14
Properties=species:S:1:pos:R:3 gdb_10387=T pbc="F F F"
O       -0.23170000      -0.01960000       0.32270000
C       -0.07520000       1.08670000      -0.11200000
C        1.24240000       1.85810000      -0.00880000
C        1.27570000       2.77910000       1.25440000
C        2.37650000       1.80390000       1.72210000
O        2.33470000       1.07660000       0.47210000
C        1.54890000       2.54640000      -1.32540000
O        0.80010000       3.33480000      -1.84300000
H       -0.88400000       1.66830000      -0.60390000
H        1.59750000       3.80110000       1.05220000
H        0.35950000       2.79670000       1.84590000
H        3.36310000       2.24270000       1.90250000
H        2.09920000       1.16460000       2.56620000
H        2.52590000       2.25130000      -1.76540000
