18
Properties=species:S:1:pos:R:3 gdb_75956=T pbc="F F F"
C        0.12140000       1.67100000       0.02330000
C        0.30410000       0.15450000      -0.01050000
C        1.00230000      -0.34680000      -1.26850000
O        1.27350000       0.37100000      -2.20130000
C        1.35960000      -1.82260000      -1.22690000
C        2.28940000      -2.06850000      -0.03170000
N        1.72570000      -1.50040000       1.18490000
C        0.95580000      -0.37210000       1.28830000
O        0.74450000       0.16000000       2.35940000
H        1.08780000       2.17870000      -0.03320000
H       -0.47590000       1.99950000      -0.82920000
H       -0.36850000       1.96090000       0.95300000
H       -0.68660000      -0.32890000      -0.01390000
H        0.44490000      -2.41370000      -1.09940000
H        1.84460000      -2.10920000      -2.16130000
H        2.43040000      -3.14310000       0.11880000
H        3.27820000      -1.63780000      -0.24740000
H        2.14010000      -1.77440000       2.06500000
