22
Properties=species:S:1:pos:R:3 gdb_22774=T pbc="F F F"
C       -0.11900000       1.68520000       0.03790000
C       -0.03690000       0.16570000       0.21650000
C       -1.37640000      -0.53020000      -0.01750000
C       -1.78850000      -0.63820000      -1.52620000
C       -1.46490000      -2.11390000      -1.44380000
N       -1.20520000      -3.04070000      -2.26620000
O       -1.35270000      -2.59350000      -3.59610000
C       -1.36620000      -2.10870000       0.06870000
C       -0.22520000      -2.86080000       0.74260000
H        0.85460000       2.15700000       0.20280000
H       -0.45070000       1.95290000      -0.97100000
H       -0.82860000       2.12710000       0.74640000
H        0.71550000      -0.24360000      -0.47060000
H        0.31870000      -0.06230000       1.22910000
H       -2.13850000      -0.07100000       0.61950000
H       -2.84720000      -0.43960000      -1.72050000
H       -1.19690000      -0.06630000      -2.24680000
H       -1.10630000      -3.37690000      -4.09910000
H       -2.32060000      -2.44480000       0.49520000
H        0.74790000      -2.55780000       0.34690000
H       -0.22480000      -2.68950000       1.82420000
H       -0.33050000      -3.93600000       0.57100000
