22
Properties=species:S:1:pos:R:3 gdb_84497=T pbc="F F F"
C       -0.07720000       1.61230000      -0.05370000
C        0.05470000       0.08590000      -0.01430000
C        0.83480000      -0.50730000      -1.17110000
C        1.58230000      -1.54280000      -0.79220000
C        1.45540000      -1.78830000       0.66880000
C        1.26250000      -3.17190000       1.19290000
N        2.51100000      -2.44270000       1.46020000
C        0.76550000      -0.53200000       1.23950000
C        1.79720000       0.39570000       1.89320000
H        0.89740000       2.10820000      -0.05540000
H       -0.60830000       1.92200000      -0.96040000
H       -0.64570000       1.98600000       0.80420000
H       -0.96670000      -0.32350000      -0.05850000
H        0.73250000      -0.14290000      -2.18800000
H        2.18800000      -2.16990000      -1.43910000
H        0.63440000      -3.33600000       2.06530000
H        1.27480000      -3.99670000       0.48380000
H        3.25520000      -2.77590000       0.85160000
H        0.02270000      -0.80970000       1.99430000
H        2.54910000       0.72730000       1.16910000
H        1.32380000       1.28320000       2.32270000
H        2.32050000      -0.14030000       2.68790000
