20
Properties=species:S:1:pos:R:3 gdb_101802=T pbc="F F F"
N       -0.03250000       1.30260000       0.19010000
C       -0.02230000       0.01380000      -0.26000000
O        0.91760000      -0.45080000      -0.87700000
C       -1.28380000      -0.78730000       0.05580000
C       -1.00690000      -2.28930000       0.15520000
C       -2.27330000      -3.13720000       0.06430000
O       -2.97090000      -2.92700000      -1.17290000
C       -2.00620000      -4.63460000       0.23090000
O       -3.19380000      -5.38080000       0.07970000
H        0.72660000       1.90600000      -0.08140000
H       -0.84110000       1.71110000       0.62440000
H       -1.76070000      -0.41200000       0.96860000
H       -1.99600000      -0.61240000      -0.76080000
H       -0.31390000      -2.56370000      -0.64950000
H       -0.48710000      -2.51620000       1.09390000
H       -2.99620000      -2.83210000       0.83120000
H       -2.33910000      -3.07420000      -1.88810000
H       -1.23610000      -4.94410000      -0.50030000
H       -1.60840000      -4.84340000       1.23020000
H       -3.66270000      -4.96470000      -0.65560000
