18
Properties=species:S:1:pos:R:3 gdb_22233=T pbc="F F F"
C        0.25420000       0.68980000       0.94880000
O        0.10000000      -0.08640000       2.12330000
C       -0.61100000      -1.31690000       1.90280000
C        0.16820000      -2.35280000       1.14310000
N       -0.42240000      -2.85260000       0.04020000
O        0.13540000      -3.79860000      -0.59980000
C        1.45840000      -2.75410000       1.60250000
N        2.02800000      -2.10770000       2.64910000
N        2.07250000      -3.76680000       0.99780000
H        3.03370000      -3.99570000       1.19340000
H        1.51060000      -4.11370000       0.18090000
H       -0.72300000       1.00190000       0.55340000
H        0.82830000       1.57830000       1.22260000
H        0.78510000       0.14170000       0.15920000
H       -0.86030000      -1.65690000       2.91500000
H       -1.54500000      -1.13560000       1.35620000
H        1.66160000      -1.18310000       2.84690000
H        2.99250000      -2.28770000       2.87780000
