20
Properties=species:S:1:pos:R:3 gdb_114564=T pbc="F F F"
C        0.05110000       1.52620000       0.16580000
C       -0.13490000       0.02810000      -0.09610000
C        0.70810000      -0.48060000      -1.25820000
C        2.27410000      -0.55780000      -1.10380000
C        2.20010000      -2.05640000      -1.40010000
N        1.34970000      -2.64620000      -0.35110000
C        0.70500000      -2.00190000      -1.53780000
C       -0.17270000      -2.72150000      -2.39100000
C       -0.93580000      -3.30640000      -3.11620000
H        1.09300000       1.76320000       0.40780000
H       -0.22800000       2.12250000      -0.71040000
H       -0.56690000       1.85980000       1.00510000
H        0.12030000      -0.54740000       0.79970000
H       -1.19150000      -0.17850000      -0.31100000
H        0.45530000       0.05490000      -2.17870000
H        2.80310000       0.01440000      -1.86810000
H        2.67480000      -0.31200000      -0.11700000
H        2.90590000      -2.66520000      -1.95200000
H        1.31210000      -3.65230000      -0.51520000
H       -1.60410000      -3.82530000      -3.75770000
