15
Properties=species:S:1:pos:R:3 gdb_132561=T pbc="F F F"
C        0.02610000       1.49050000       0.01180000
C        0.03230000      -0.01650000       0.02130000
N       -0.01990000      -0.64470000      -1.16120000
C       -0.01560000      -1.95590000      -1.17510000
F       -0.06870000      -2.53420000      -2.37650000
C        0.03960000      -2.76490000      -0.04550000
C        0.09390000      -2.12550000       1.18320000
C        0.09050000      -0.73220000       1.22470000
O        0.14450000      -0.12840000       2.44620000
H        0.93300000       1.90620000       0.47090000
H       -0.02340000       1.84240000      -1.01890000
H       -0.83710000       1.89950000       0.55380000
H        0.03950000      -3.84360000      -0.13680000
H        0.13880000      -2.68300000       2.11170000
H        0.13590000       0.82700000       2.33140000
