20
Properties=species:S:1:pos:R:3 gdb_90154=T pbc="F F F"
C       -0.25680000       1.50580000      -0.15170000
C       -0.04950000       0.00530000       0.00330000
C        1.02350000      -0.61340000      -0.96260000
C        1.84520000      -1.04560000       0.26750000
C        3.20120000      -0.62940000       0.77580000
O        2.96650000      -0.13310000       2.10180000
C        1.60550000       0.30390000       2.25320000
C        0.83360000      -0.44730000       1.19860000
N        1.08870000      -1.88460000       1.19190000
H        0.69660000       2.04530000      -0.15840000
H       -0.76960000       1.72740000      -1.09350000
H       -0.86420000       1.91010000       0.66530000
H       -1.02270000      -0.49960000      -0.01160000
H        0.70710000      -1.41740000      -1.63480000
H        1.52400000       0.15720000      -1.55540000
H        3.93250000      -1.43790000       0.86990000
H        3.61970000       0.15110000       0.12010000
H        1.31840000       0.07510000       3.28390000
H        1.51430000       1.38910000       2.09510000
H        0.34950000      -2.40070000       0.72000000
