16
Properties=species:S:1:pos:R:3 gdb_86474=T pbc="F F F"
C        0.56550000       1.58510000       0.00200000
C       -0.00490000       0.18600000      -0.07460000
C        0.42730000      -0.71610000      -1.24980000
C        1.00770000      -1.65410000      -0.14110000
O        0.61880000      -0.71720000       0.88830000
C        0.36200000      -2.95470000      -0.00740000
C       -0.19370000      -4.01470000       0.08900000
C        2.47350000      -1.81060000      -0.18760000
N        3.62340000      -1.90310000      -0.24800000
H        1.64620000       1.57680000      -0.16840000
H        0.09490000       2.22780000      -0.75020000
H        0.37500000       2.01860000       0.98840000
H       -1.08940000       0.19930000       0.08560000
H       -0.36920000      -1.16780000      -1.83850000
H        1.18620000      -0.28900000      -1.90520000
H       -0.67550000      -4.95710000       0.18390000
