15
Properties=species:S:1:pos:R:3 gdb_55658=T pbc="F F F"
C       -0.06520000       1.44630000      -0.06540000
C        0.12080000      -0.04100000      -0.05730000
N        1.24960000      -0.59530000      -0.14930000
O       -1.11950000      -0.64890000       0.06160000
C       -1.17750000      -2.05130000       0.20950000
C       -2.54920000      -2.36030000       0.84840000
O       -3.13390000      -3.39220000       0.70740000
C       -0.97770000      -2.77530000      -1.05250000
N       -0.81160000      -3.33590000      -2.04790000
H        0.90560000       1.93140000      -0.15080000
H       -0.69980000       1.73850000      -0.90760000
H       -0.56730000       1.77320000       0.85010000
H        1.23010000      -1.61310000      -0.17620000
H       -0.41760000      -2.39430000       0.93180000
H       -2.91170000      -1.52000000       1.47430000
