19
Properties=species:S:1:pos:R:3 gdb_102762=T pbc="F F F"
O        0.23450000       1.09780000       0.20850000
C       -0.11480000      -0.16540000      -0.31790000
C       -1.57330000      -0.51930000       0.00350000
O       -1.68530000      -0.46570000       1.41860000
C       -2.76420000      -1.18250000       1.94890000
C       -3.22640000      -0.78500000       3.31010000
C       -4.11450000      -0.52870000       2.10700000
C       -2.51370000       0.47670000      -0.67480000
O       -2.90310000       0.34970000      -1.80540000
H        0.04840000       1.05690000       1.15380000
H        0.01730000      -0.11580000      -1.40250000
H        0.52930000      -0.96590000       0.07610000
H       -1.79880000      -1.52300000      -0.38360000
H       -2.74270000      -2.24320000       1.69950000
H       -3.49840000      -1.56360000       4.01320000
H       -2.73950000       0.07710000       3.75160000
H       -4.21610000       0.50140000       1.78650000
H       -5.00080000      -1.13760000       1.96780000
H       -2.78460000       1.35250000      -0.04630000
