16
Properties=species:S:1:pos:R:3 gdb_71326=T pbc="F F F"
C        0.00470000       1.49340000      -0.12660000
C        0.01990000       0.01150000       0.11260000
C       -1.27400000      -0.78800000       0.42630000
N       -0.46340000      -1.78060000       1.23820000
C        0.70500000      -0.80890000       1.23650000
C        1.37490000      -1.61390000       0.10530000
O        0.81210000      -0.70100000      -0.88660000
C        0.26390000      -2.66030000       0.33270000
O       -0.02830000      -3.73210000      -0.09520000
H        1.02200000       1.89290000      -0.15420000
H       -0.47260000       1.71220000      -1.08800000
H       -0.55630000       2.00710000       0.65990000
H       -1.96630000      -0.24740000       1.07890000
H       -1.81510000      -1.22580000      -0.41610000
H        1.12930000      -0.47730000       2.18000000
H        2.42380000      -1.84810000      -0.07810000
