20
Properties=species:S:1:pos:R:3 gdb_26178=T pbc="F F F"
C       -0.06190000       1.54680000       0.02270000
C       -0.01270000       0.00700000       0.04620000
C        0.72430000      -0.50460000       1.29880000
C       -1.38200000      -0.58600000      -0.06210000
C       -1.97740000      -1.38940000      -0.98580000
C       -3.32230000      -1.62060000      -0.53190000
N       -4.25750000      -2.46200000      -1.15350000
C       -3.43980000      -0.93410000       0.63900000
O       -2.25730000      -0.30320000       0.93770000
H        0.94850000       1.96550000       0.07340000
H       -0.54020000       1.91260000      -0.89060000
H       -0.63120000       1.92650000       0.87650000
H        0.53620000      -0.33390000      -0.83990000
H        0.80550000      -1.59540000       1.29070000
H        1.73390000      -0.08420000       1.35040000
H        0.18710000      -0.21350000       2.20650000
H       -1.52070000      -1.78300000      -1.88140000
H       -4.22610000      -2.39500000      -2.16290000
H       -5.20520000      -2.29270000      -0.84190000
H       -4.23880000      -0.80450000       1.34920000
