18
Properties=species:S:1:pos:R:3 gdb_117431=T pbc="F F F"
C       -0.27800000       1.40270000       0.01320000
O       -0.02900000       0.01720000       0.00300000
C       -1.20430000      -0.73400000       0.00980000
C       -0.89670000      -2.21520000      -0.00120000
N        0.27580000      -2.68100000      -0.01540000
O       -2.09290000      -2.87600000       0.00700000
C       -2.05000000      -4.30210000      -0.00150000
C       -3.40890000      -4.81880000       0.00890000
C       -4.51740000      -5.27870000       0.01710000
H        0.69200000       1.90430000       0.00690000
H       -0.85130000       1.72320000      -0.87160000
H       -0.83470000       1.71320000       0.91210000
H       -1.82300000      -0.52120000       0.89940000
H       -1.83940000      -0.51140000      -0.86570000
H        0.31000000      -3.69860000      -0.02130000
H       -1.51620000      -4.65570000      -0.89510000
H       -1.49880000      -4.66580000       0.87740000
H       -5.50040000      -5.68090000       0.02410000
