17
Properties=species:S:1:pos:R:3 gdb_29198=T pbc="F F F"
C       -0.03520000       1.53510000      -0.03320000
C       -0.00930000       0.03250000      -0.00980000
C       -0.03010000      -0.69890000      -1.13960000
O       -0.00840000      -2.03740000      -1.15930000
C        0.03900000      -2.75790000       0.06310000
N        0.06050000      -4.02260000       0.02870000
N        0.06180000      -2.03970000       1.23870000
C        0.03970000      -0.74390000       1.22160000
C        0.06640000      -0.03390000       2.54590000
H        0.85290000       1.96640000       0.44260000
H       -0.07150000       1.90490000      -1.06190000
H       -0.90790000       1.93690000       0.49410000
H       -0.06620000      -0.27940000      -2.14050000
H        0.03810000      -4.34900000      -0.93670000
H        0.10230000      -0.76570000       3.35250000
H        0.93740000       0.62810000       2.61560000
H       -0.82060000       0.59870000       2.66690000
