17
Properties=species:S:1:pos:R:3 gdb_70993=T pbc="F F F"
O       -0.02550000       1.48910000      -0.04180000
C        0.02480000       0.10700000      -0.03340000
C        0.20970000      -0.76320000       1.36570000
C       -0.41030000      -1.81420000       0.37280000
O       -1.44420000      -2.82270000       0.18540000
C       -1.99700000      -1.92580000      -0.86490000
C       -1.30590000      -0.72480000      -0.14900000
C        0.71520000      -1.92220000      -0.66930000
C        0.98900000      -0.64990000      -0.95250000
H        0.87140000       1.83210000       0.03810000
H        1.23330000      -0.91640000       1.71770000
H       -0.45460000      -0.41990000       2.16130000
H       -1.60290000      -2.20000000      -1.84740000
H       -3.08870000      -1.93700000      -0.85630000
H       -1.98840000      -0.38950000       0.63580000
H        1.12180000      -2.84860000      -1.04920000
H        1.70320000      -0.20180000      -1.63040000
