16
Properties=species:S:1:pos:R:3 gdb_27364=T pbc="F F F"
C        0.01280000       1.46490000       0.09860000
C       -0.02980000      -0.01750000      -0.06090000
N        0.10200000      -0.61800000      -1.16860000
C        0.04120000      -2.02680000      -1.17920000
N        0.17240000      -2.63900000      -2.28600000
N       -0.16460000      -2.70750000       0.04850000
C       -0.28570000      -2.01870000       1.10790000
C       -0.50520000      -2.60250000       2.46350000
O       -0.23110000      -0.64660000       1.15230000
H        0.81840000       1.74840000       0.78360000
H        0.17260000       1.92720000      -0.87420000
H       -0.92510000       1.82530000       0.53360000
H        0.10210000      -3.64190000      -2.10490000
H       -0.54270000      -3.68820000       2.38900000
H        0.30280000      -2.30260000       3.13850000
H       -1.44050000      -2.22540000       2.88940000
