18
Properties=species:S:1:pos:R:3 gdb_48882=T pbc="F F F"
O       -0.08310000      -0.01430000      -0.00010000
C        0.02190000       1.18740000       0.01550000
C        1.31600000       1.93410000      -0.00970000
C        1.42500000       3.15460000       0.97390000
C        1.95090000       4.00350000      -0.18830000
C        1.55060000       2.96370000      -1.18240000
N        2.94770000       3.29860000      -1.00710000
C        3.67050000       2.17740000      -0.35970000
C        2.60560000       1.11570000       0.01760000
H       -0.88310000       1.83880000       0.04140000
H        0.43970000       3.50580000       1.29530000
H        2.05880000       3.01120000       1.85500000
H        1.92790000       5.08540000      -0.25510000
H        1.06550000       3.00540000      -2.15020000
H        4.40570000       1.78810000      -1.06890000
H        4.21890000       2.55220000       0.50970000
H        2.78570000       0.66140000       0.99590000
H        2.55730000       0.30800000      -0.71850000
