21
Properties=species:S:1:pos:R:3 gdb_59429=T pbc="F F F"
C        0.08930000       1.49280000      -0.23960000
C        0.05000000      -0.00030000       0.08990000
O        0.75820000      -0.28260000       1.29780000
C       -1.36550000      -0.54300000       0.12890000
C       -1.98210000      -1.16000000      -1.11150000
C       -1.60500000      -2.01830000       0.05530000
C       -0.58720000      -3.15370000       0.14410000
O       -1.48660000      -3.91500000       0.98440000
C       -2.49750000      -2.88670000       0.93540000
H        1.12200000       1.85110000      -0.25570000
H       -0.37030000       1.69380000      -1.21240000
H       -0.46100000       2.06900000       0.51470000
H        0.61020000      -0.54810000      -0.67820000
H        0.28670000       0.14300000       2.02250000
H       -2.04340000       0.02170000       0.77000000
H       -3.03590000      -0.98790000      -1.30740000
H       -1.36750000      -1.21750000      -2.00600000
H       -0.36670000      -3.67760000      -0.79550000
H        0.34770000      -2.90810000       0.66020000
H       -2.72690000      -2.48600000       1.93240000
H       -3.42700000      -3.24480000       0.47150000
