13
Properties=species:S:1:pos:R:3 gdb_23969=T pbc="F F F"
C        0.11590000      -1.19910000      -0.00570000
C        0.00950000       0.00080000       0.00250000
C       -0.09400000       1.40510000       0.01200000
C       -1.19670000       2.23670000       0.03150000
C       -0.71860000       3.57820000       0.03280000
C        0.66840000       3.52460000       0.01400000
N        1.02860000       2.21850000       0.00170000
C       -1.49940000       4.76010000       0.05000000
N       -2.14210000       5.72370000       0.06410000
H        0.19690000      -2.25800000      -0.01280000
H       -2.22680000       1.92180000       0.04340000
H        1.39520000       4.31990000       0.00890000
H        1.97300000       1.87150000      -0.01290000
