15
Properties=species:S:1:pos:R:3 gdb_16563=T pbc="F F F"
C       -0.01380000       1.54470000      -0.03090000
O        1.37570000       1.95750000      -0.01150000
C        2.17290000       0.81320000      -0.03850000
C        1.33290000      -0.25170000      -0.73800000
C        0.04360000       0.01480000       0.05690000
N        0.23320000      -0.40430000       1.45640000
C        1.39390000      -0.20620000       1.92690000
O        2.46020000       0.36420000       1.31190000
H       -0.53120000       1.99510000       0.81950000
H       -0.47660000       1.88850000      -0.96450000
H        3.14470000       1.05990000      -0.46390000
H        1.22490000      -0.01770000      -1.80050000
H        1.72150000      -1.26370000      -0.61750000
H       -0.84940000      -0.46540000      -0.34510000
H        1.64950000      -0.50450000       2.94140000
