15
Properties=species:S:1:pos:R:3 gdb_29461=T pbc="F F F"
N        0.04440000       1.40090000       0.16930000
C        0.02100000       0.00390000       0.05940000
C       -1.07090000      -0.83050000      -0.00850000
N       -0.65360000      -2.18610000      -0.11700000
C        0.70700000      -2.15340000      -0.00240000
C        1.17140000      -0.85620000       0.05880000
N        2.55300000      -0.83030000       0.03790000
C        2.89700000      -2.09350000      -0.02790000
N        1.81060000      -2.96350000      -0.07300000
H        0.89960000       1.79320000      -0.20250000
H       -0.75210000       1.85070000      -0.26210000
H       -2.12310000      -0.59760000      -0.02530000
H       -1.23780000      -2.94200000       0.20030000
H        3.90740000      -2.47450000      -0.03700000
H        1.85540000      -3.96720000      -0.09030000
