17
Properties=species:S:1:pos:R:3 gdb_124111=T pbc="F F F"
C       -0.06700000       1.51020000      -0.03260000
C       -0.01900000       0.05610000      -0.04420000
C        0.01510000      -1.15070000      -0.05430000
C        0.04550000      -2.56340000      -0.06690000
C        1.16980000      -3.38180000       0.01850000
C        2.61550000      -3.04000000       0.14310000
N        0.69860000      -4.65090000      -0.03450000
N       -0.64600000      -4.73410000      -0.14800000
C       -1.04490000      -3.47210000      -0.16780000
H        0.49840000       1.93860000      -0.86830000
H       -1.09880000       1.86970000      -0.11510000
H        0.35100000       1.91970000       0.89430000
H        3.05290000      -3.44440000       1.06320000
H        3.20050000      -3.42550000      -0.69990000
H        2.72750000      -1.95420000       0.16410000
H        1.23470000      -5.50180000       0.00120000
H       -2.09430000      -3.23290000      -0.25310000
