16
Properties=species:S:1:pos:R:3 gdb_81217=T pbc="F F F"
O       -0.10450000       1.43470000      -0.08780000
C        0.03730000       0.04420000       0.02970000
C       -0.01970000      -0.61900000       1.42870000
C       -1.55330000      -0.18260000       1.49650000
C       -1.29100000      -0.75980000       0.07880000
O       -1.88410000      -1.26480000      -1.11150000
C       -1.00990000      -2.31230000      -1.36700000
N       -0.15860000      -2.69250000      -0.49030000
C       -0.55920000      -1.91490000       0.70660000
H        0.76950000       1.83240000      -0.03230000
H        0.80450000      -0.34940000      -0.64270000
H        0.69800000      -0.53680000       2.24240000
H       -2.19360000      -0.77500000       2.15180000
H       -1.73000000       0.88720000       1.57580000
H       -1.12820000      -2.74370000      -2.35470000
H       -1.11410000      -2.56960000       1.38550000
