12
Properties=species:S:1:pos:R:3 gdb_129868=T pbc="F F F"
N        0.03480000       1.32820000       0.18670000
C        0.02040000      -0.04080000       0.07640000
C       -0.97750000      -0.94590000      -0.02410000
C       -0.30490000      -2.23360000       0.00130000
C        1.13630000      -2.00910000       0.10950000
O        2.07960000      -2.74370000       0.15550000
N       -1.22850000      -4.48460000      -0.12020000
N       -0.80560000      -3.43040000      -0.06460000
O        1.26630000      -0.61340000       0.15390000
H        0.88110000       1.75690000      -0.16240000
H       -0.80070000       1.78680000      -0.14540000
H       -2.03490000      -0.76190000      -0.10020000
