14
Properties=species:S:1:pos:R:3 gdb_22003=T pbc="F F F"
O       -0.25590000       1.35770000      -0.37320000
N       -0.04000000      -0.02290000      -0.38260000
C       -1.09370000      -0.66580000      -0.01160000
C       -1.01920000      -2.10830000       0.16960000
C       -2.07330000      -2.95530000       0.10290000
N       -3.35730000      -2.69940000      -0.32420000
C       -3.91720000      -1.54130000      -0.28390000
N       -3.53060000      -0.39150000       0.37650000
C       -2.31840000      -0.01110000       0.51430000
H        0.60230000       1.70310000      -0.64120000
H       -0.03600000      -2.51530000       0.38640000
H       -1.88940000      -4.00900000       0.29890000
H       -4.90680000      -1.45890000      -0.73240000
H       -2.14000000       0.87990000       1.11790000
