18
Properties=species:S:1:pos:R:3 gdb_64723=T pbc="F F F"
O       -0.05420000       1.42770000      -0.02780000
C       -0.00960000       0.02170000       0.01860000
C        0.91820000      -0.53600000      -1.08030000
C        2.27320000      -0.01530000      -0.94070000
C        3.36240000       0.46900000      -0.77810000
C        0.19330000      -0.66540000       1.40540000
N       -1.12030000      -1.39540000       1.28900000
C       -2.13920000      -0.33300000       1.23220000
C       -1.38640000      -0.62680000      -0.00050000
H        0.85720000       1.74660000      -0.06480000
H        0.92180000      -1.63110000      -1.04110000
H        0.50960000      -0.24790000      -2.05700000
H        4.33890000       0.86880000      -0.65620000
H        1.02740000      -1.36880000       1.44680000
H        0.24250000       0.01560000       2.26020000
H       -3.15390000      -0.71450000       1.29170000
H       -1.96450000       0.60100000       1.75990000
H       -1.83770000      -1.09920000      -0.86810000
