19
Properties=species:S:1:pos:R:3 gdb_41386=T pbc="F F F"
C       -0.13580000       1.45820000      -0.02190000
C        1.44050000       1.50600000       0.09710000
C        1.49760000       0.13150000      -0.63110000
O        1.91840000       0.18480000      -2.01180000
C        2.44170000      -1.15910000      -1.93740000
C        2.11190000      -1.27920000      -0.43390000
C        0.91500000      -2.18890000      -0.02950000
C       -0.28230000      -1.24510000       0.08840000
C        0.04050000      -0.01810000      -0.30780000
H       -0.72600000       1.73690000       0.85420000
H       -0.48250000       2.03580000      -0.88380000
H        1.94610000       2.31910000      -0.42860000
H        1.78430000       1.45980000       1.13280000
H        1.89480000      -1.85340000      -2.58830000
H        3.50580000      -1.18460000      -2.19960000
H        2.98000000      -1.39560000       0.21590000
H        0.75700000      -2.99720000      -0.75650000
H        1.09070000      -2.68270000       0.93440000
H       -1.21100000      -1.56300000       0.55120000
