17
Properties=species:S:1:pos:R:3 gdb_1348=T pbc="F F F"
C        0.09250000       1.46490000      -0.07060000
C       -0.09000000      -0.05570000       0.04430000
C       -1.57930000      -0.43050000       0.04070000
O        0.54290000      -0.68060000      -1.09320000
C        1.57520000      -1.56740000      -0.67950000
C        1.58480000      -1.48770000       0.82110000
C        0.64980000      -0.63890000       1.22700000
H        1.15500000       1.72140000      -0.08540000
H       -0.36550000       1.82820000      -0.99550000
H       -0.37870000       1.98160000       0.77230000
H       -2.05110000      -0.08190000      -0.88300000
H       -1.69980000      -1.51510000       0.10400000
H       -2.10150000       0.02780000       0.88730000
H        1.36710000      -2.58650000      -1.04350000
H        2.53700000      -1.26100000      -1.12150000
H        2.26800000      -2.05410000       1.44170000
H        0.41290000      -0.36980000       2.24900000
