19
Properties=species:S:1:pos:R:3 gdb_98091=T pbc="F F F"
C       -0.14000000       1.39140000       0.00140000
N       -0.08520000      -0.03770000      -0.20280000
C        0.63530000      -0.59100000      -1.20880000
N        1.21870000       0.12620000      -2.10180000
C        0.66190000      -2.11760000      -1.10630000
O        0.27970000      -2.65120000      -0.08000000
C        1.16610000      -2.90600000      -2.25630000
C        2.03090000      -4.12340000      -1.93420000
C        0.63380000      -4.32610000      -2.39990000
H        0.84620000       1.81060000       0.24070000
H       -0.49240000       1.88810000      -0.90750000
H       -0.83030000       1.60900000       0.81890000
H       -0.35850000      -0.67380000       0.52940000
H        1.70210000      -0.45410000      -2.78100000
H        1.38660000      -2.37240000      -3.17070000
H        2.85150000      -4.33160000      -2.61070000
H        2.23730000      -4.28400000      -0.88240000
H       -0.10180000      -4.62200000      -1.66120000
H        0.46100000      -4.68090000      -3.40910000
