24
Properties=species:S:1:pos:R:3 gdb_6614=T pbc="F F F"
C        0.16160000       1.55870000       0.33220000
C        0.00910000       0.05210000       0.05550000
C        0.67660000      -0.73750000       1.19780000
C       -1.49030000      -0.29810000       0.00040000
C        0.65910000      -0.37250000      -1.27670000
C        0.28440000       0.30850000      -2.62670000
C        1.75500000       0.11090000      -3.08250000
C        2.15410000      -0.07060000      -1.59350000
H        1.21230000       1.85750000       0.39900000
H       -0.31310000       2.16680000      -0.44400000
H       -0.31230000       1.81860000       1.28520000
H        0.22390000      -0.48990000       2.16430000
H        0.57050000      -1.81770000       1.04660000
H        1.74660000      -0.51290000       1.26410000
H       -1.99650000       0.24610000      -0.80420000
H       -1.64000000      -1.36950000      -0.17490000
H       -1.98940000      -0.04120000       0.94140000
H        0.50080000      -1.45350000      -1.38680000
H       -0.50440000      -0.15150000      -3.22720000
H        0.04740000       1.36910000      -2.50010000
H        1.88110000      -0.81540000      -3.65060000
H        2.22720000       0.92410000      -3.63890000
H        2.48470000       0.87500000      -1.15340000
H        2.89140000      -0.83990000      -1.35080000
