18
Properties=species:S:1:pos:R:3 gdb_23067=T pbc="F F F"
C       -0.00340000       1.44010000       0.03540000
C       -0.02550000      -0.05810000      -0.02800000
C       -1.24240000      -0.96240000      -0.26380000
C       -0.33690000      -2.14030000       0.20620000
C        0.59960000      -1.05820000       0.89850000
C        1.21650000      -0.86200000      -0.49490000
C        0.72260000      -2.20260000      -0.88460000
N        1.18840000      -3.06650000      -1.68460000
O        0.44540000      -4.27270000      -1.60790000
H        0.97420000       1.81030000       0.36170000
H       -0.21700000       1.88150000      -0.94450000
H       -0.75360000       1.81230000       0.74210000
H       -2.03300000      -0.74670000       0.46150000
H       -1.66650000      -1.02910000      -1.27180000
H       -0.74150000      -3.04330000       0.65110000
H        1.06750000      -0.99950000       1.87020000
H        2.14350000      -0.37170000      -0.75730000
H        0.91330000      -4.82930000      -2.23850000
