17
Properties=species:S:1:pos:R:3 gdb_33862=T pbc="F F F"
N       -0.05460000      -1.10160000      -0.21680000
C       -0.03840000       0.05130000      -0.11180000
C       -0.02490000       1.47840000       0.02950000
C        0.45550000       2.31050000      -1.15020000
C        1.30520000       2.25150000       0.08260000
C        1.12870000       3.34450000       1.11300000
N        0.11110000       4.35670000       0.75770000
C       -0.24170000       3.26750000       1.68750000
C       -0.99650000       2.10590000       1.04880000
H        0.79310000       1.75900000      -2.01980000
H       -0.07360000       3.23470000      -1.34670000
H        2.24550000       1.71540000       0.05880000
H        1.98690000       3.64230000       1.70430000
H        0.28040000       5.21270000       1.27960000
H       -0.44680000       3.51520000       2.72410000
H       -1.93210000       2.42720000       0.58170000
H       -1.24260000       1.36430000       1.81430000
