17
Properties=species:S:1:pos:R:3 gdb_44122=T pbc="F F F"
O       -0.01840000       0.49000000      -0.98220000
C       -0.02150000       1.44120000      -0.24900000
C       -1.27960000       2.12040000       0.32520000
C       -0.78770000       3.34260000       1.06930000
C        0.72800000       3.36340000       1.04870000
C        1.23280000       2.15490000       0.29090000
C       -0.05520000       4.41290000       0.26580000
C       -0.07480000       4.41550000      -1.16690000
C       -0.09100000       4.40240000      -2.37030000
H       -1.97890000       2.33530000      -0.48810000
H       -1.77470000       1.41420000       1.00200000
H       -1.33280000       3.67990000       1.94280000
H        1.28720000       3.71590000       1.90710000
H        1.76530000       1.46280000       0.95370000
H        1.90350000       2.38850000      -0.54110000
H       -0.06260000       5.39980000       0.71970000
H       -0.10540000       4.39510000      -3.43210000
