20
Properties=species:S:1:pos:R:3 gdb_12737=T pbc="F F F"
C       -0.64800000       1.37530000       0.06870000
C        0.04190000       0.03040000      -0.03150000
O        1.18840000       0.04270000      -0.92300000
C        2.01480000      -0.63710000       0.04330000
C        2.90380000       0.33430000       0.84610000
C        1.76180000       0.48670000       1.89920000
C        0.89350000      -0.55460000       1.12570000
C        0.32600000      -1.71930000       1.90460000
H        0.04160000       2.16290000       0.38250000
H       -1.05620000       1.65670000      -0.90740000
H       -1.47900000       1.32860000       0.78140000
H       -0.68430000      -0.72130000      -0.38020000
H        2.44720000      -1.56170000      -0.35220000
H        3.80730000      -0.13010000       1.25110000
H        3.18320000       1.23240000       0.29130000
H        2.04150000       0.13590000       2.89590000
H        1.33300000       1.48550000       2.00590000
H       -0.47060000      -1.38710000       2.58230000
H       -0.09900000      -2.47870000       1.23900000
H        1.09450000      -2.20270000       2.51780000
