21
Properties=species:S:1:pos:R:3 gdb_106497=T pbc="F F F"
C        0.22750000       1.51900000       0.21040000
C       -0.09000000       0.04880000      -0.09010000
C        0.62020000      -0.48720000      -1.30580000
C        0.75980000      -1.99430000      -1.63040000
C        2.01210000      -1.42560000      -2.32380000
C        1.44890000      -0.61170000      -3.50280000
C        0.33040000       0.13040000      -2.70010000
O       -0.99940000      -0.18220000      -3.08000000
O        2.08750000      -0.40320000      -1.27700000
H        1.30610000       1.66910000       0.31220000
H       -0.13190000       2.18150000      -0.58310000
H       -0.25040000       1.83300000       1.14290000
H        0.18400000      -0.57010000       0.77190000
H       -1.16660000      -0.08460000      -0.25080000
H        1.00970000      -2.57040000      -0.73850000
H       -0.01360000      -2.47790000      -2.22930000
H        2.93340000      -1.99180000      -2.45990000
H        2.19800000       0.06490000      -3.92010000
H        1.02980000      -1.22890000      -4.30290000
H        0.49050000       1.21460000      -2.68460000
H       -1.17750000       0.23130000      -3.92970000
