14
Properties=species:S:1:pos:R:3 gdb_2275=T pbc="F F F"
N       -0.02600000      -1.14080000       0.28020000
C       -0.01560000       0.01030000       0.18310000
C        0.00340000       1.46470000       0.04260000
C        1.41760000       2.02200000      -0.15000000
C        1.56750000       3.55850000      -0.12800000
C        2.52420000       3.29670000       1.05340000
O        2.22650000       1.88220000       1.03180000
H       -0.61470000       1.74340000      -0.81970000
H       -0.44650000       1.91650000       0.93340000
H        1.88910000       1.53330000      -1.01260000
H        2.00470000       4.01000000      -1.01890000
H        0.65330000       4.09470000       0.13610000
H        3.58280000       3.49090000       0.84420000
H        2.26020000       3.75550000       2.01230000
