19
Properties=species:S:1:pos:R:3 gdb_83924=T pbc="F F F"
C       -0.19460000       1.53150000       0.02920000
C        0.03830000       0.03450000       0.04480000
C        1.34220000      -0.63670000      -0.23850000
C        2.63180000       0.15620000      -0.10420000
O        2.55520000       0.85820000       1.13080000
C        1.72990000       0.12580000       2.03700000
C        0.76740000      -0.68190000       1.18480000
C        0.18970000      -1.92450000       1.72700000
O        0.36940000      -2.33420000       2.84940000
H        0.67290000       2.08260000       0.39400000
H       -0.41010000       1.86610000      -0.99140000
H       -1.05750000       1.79250000       0.65040000
H       -0.81610000      -0.53740000      -0.31540000
H        1.35800000      -1.53180000      -0.85110000
H        3.48950000      -0.53450000      -0.12110000
H        2.77740000       0.90130000      -0.89400000
H        2.31690000      -0.56030000       2.66270000
H        1.24310000       0.85460000       2.69250000
H       -0.45260000      -2.48300000       1.00590000
