18
Properties=species:S:1:pos:R:3 gdb_16680=T pbc="F F F"
C       -0.15260000       1.52880000       0.05540000
C        0.01840000       0.01570000       0.01470000
C        0.77160000      -0.60900000      -1.20510000
C        2.09870000      -0.27820000      -0.46330000
C        1.24070000      -0.58660000       0.81030000
C        0.97540000      -2.06870000       0.59320000
O        1.01500000      -2.97580000       1.37970000
C        0.62570000      -2.11530000      -0.91500000
H        0.77550000       2.07400000      -0.13550000
H       -0.88360000       1.84710000      -0.69610000
H       -0.52690000       1.84590000       1.03430000
H       -0.94600000      -0.45490000       0.24140000
H        0.58400000      -0.27010000      -2.22440000
H        2.96680000      -0.91450000      -0.65780000
H        2.39210000       0.76880000      -0.52800000
H        1.51490000      -0.27160000       1.81540000
H       -0.38370000      -2.50780000      -1.07340000
H        1.33010000      -2.74670000      -1.46550000
