15
Properties=species:S:1:pos:R:3 gdb_48745=T pbc="F F F"
O       -0.19880000       0.29160000      -0.83810000
C        0.02390000       1.06910000       0.05410000
C        1.25170000       1.89110000       0.16900000
O        2.08640000       2.07310000      -0.97080000
C        2.68390000       1.43240000       0.13330000
C        3.06350000       2.51660000       1.18930000
O        3.52870000       3.76060000       0.65910000
C        2.18140000       4.30800000       0.63760000
C        1.59490000       2.99410000       1.20340000
H       -0.68610000       1.21540000       0.89910000
H        3.08340000       0.43590000      -0.02460000
H        3.61250000       2.16100000       2.06410000
H        2.09820000       5.16590000       1.31340000
H        1.86750000       4.58670000      -0.37170000
H        0.99280000       3.01610000       2.10970000
