17
Properties=species:S:1:pos:R:3 gdb_64987=T pbc="F F F"
C       -0.15990000       1.21950000      -1.13590000
C       -0.11930000       0.06280000      -0.17100000
C        0.96740000      -0.93360000      -0.23040000
O        0.95320000       0.06580000       0.79500000
C       -1.45270000      -0.37970000       0.38830000
N       -2.50430000      -0.25900000      -0.30960000
N       -1.33990000      -0.90670000       1.68750000
C       -2.35350000      -1.43020000       2.44730000
O       -3.50410000      -1.56390000       2.09450000
H        0.84180000       1.43260000      -1.51590000
H       -0.82810000       0.98140000      -1.96550000
H       -0.54860000       2.11470000      -0.64220000
H        0.79160000      -1.95300000       0.10890000
H        1.74770000      -0.81730000      -0.98000000
H       -3.31360000      -0.62360000       0.19420000
H       -0.42430000      -0.79560000       2.10610000
H       -1.99490000      -1.73040000       3.45030000
