19
Properties=species:S:1:pos:R:3 gdb_122596=T pbc="F F F"
C       -0.22350000       1.48150000      -0.11270000
C        0.15030000       0.00090000      -0.00490000
C        0.68580000      -0.55270000      -1.31620000
O        1.01880000      -1.92730000      -1.12020000
C        1.52980000      -2.54390000      -2.25720000
C        1.79020000      -4.04990000      -2.10360000
O        0.86200000      -4.33530000      -3.20150000
C        0.51490000      -3.01340000      -3.33020000
O       -0.31200000      -2.53870000      -4.03970000
H        0.64310000       2.09420000      -0.38440000
H       -0.99580000       1.64350000      -0.87220000
H       -0.60960000       1.85690000       0.83900000
H        0.90860000      -0.14610000       0.77280000
H       -0.72280000      -0.59110000       0.29190000
H       -0.06130000      -0.45870000      -2.11620000
H        1.58490000       0.00130000      -1.63480000
H        2.36610000      -1.97920000      -2.69680000
H        2.79270000      -4.41110000      -2.33640000
H        1.42310000      -4.46370000      -1.16310000
