17
Properties=species:S:1:pos:R:3 gdb_17102=T pbc="F F F"
O       -0.00400000       0.00970000       0.10000000
C        0.04180000       1.22470000       0.08030000
N        1.17850000       1.95080000       0.08810000
C        2.54790000       1.41130000       0.05020000
C        3.28880000       2.76000000      -0.07210000
C        2.52940000       3.63190000       0.97990000
C        1.35850000       3.40180000      -0.01700000
C        2.42510000       3.49790000      -1.14580000
H       -0.86160000       1.86830000       0.06210000
H        2.78960000       0.85870000       0.96340000
H        2.69300000       0.74750000      -0.80760000
H        4.37540000       2.71970000      -0.12290000
H        2.41020000       3.24120000       1.99330000
H        2.87640000       4.66610000       0.99740000
H        0.42420000       3.96070000      -0.00560000
H        2.76310000       4.51940000      -1.32730000
H        2.21020000       2.98360000      -2.08570000
