21
Properties=species:S:1:pos:R:3 gdb_92324=T pbc="F F F"
C        0.02080000       1.52950000       0.25860000
C        0.04920000       0.03290000      -0.01240000
C        1.24870000      -0.58380000      -0.83760000
C        1.20890000      -1.82210000       0.12710000
O        2.34140000      -2.32240000       0.81270000
C        2.14340000      -2.04580000       2.20920000
C        1.06520000      -0.96380000       2.28070000
C        0.89230000      -0.09530000       3.48450000
C        0.49000000      -0.92780000       1.08070000
H        0.96060000       1.86290000       0.71020000
H       -0.12600000       2.08970000      -0.67110000
H       -0.79570000       1.79680000       0.93800000
H       -0.89690000      -0.28510000      -0.46720000
H        1.08440000      -0.76380000      -1.90310000
H        2.16370000      -0.00620000      -0.68570000
H        0.63070000      -2.64750000      -0.31360000
H        1.87200000      -2.97180000       2.74390000
H        3.09040000      -1.68910000       2.63840000
H        1.84130000       0.36880000       3.78300000
H        0.16230000       0.69790000       3.30640000
H        0.54610000      -0.67770000       4.34840000
