18
Properties=species:S:1:pos:R:3 gdb_66595=T pbc="F F F"
O       -0.10290000       1.36390000       0.12610000
C        0.04560000      -0.00460000       0.06550000
C       -1.05990000      -1.02990000       0.12320000
C       -0.31730000      -0.85590000      -1.17350000
N        0.40910000      -2.13390000      -1.05740000
C        1.87240000      -1.97500000      -1.18880000
C        2.36190000      -1.13410000       0.03950000
C        1.05740000      -0.89650000       0.80380000
C        0.07960000      -2.05530000       0.41050000
H        0.49890000       1.76910000      -0.50840000
H       -2.10950000      -0.98220000       0.36780000
H       -0.64790000      -0.43160000      -2.11440000
H        2.33470000      -2.96740000      -1.19390000
H        2.09930000      -1.50440000      -2.15010000
H        3.09290000      -1.68730000       0.63780000
H        2.83780000      -0.19400000      -0.25770000
H        1.13390000      -0.68700000       1.87130000
H        0.01740000      -2.98610000       0.97160000
