23
Properties=species:S:1:pos:R:3 gdb_101571=T pbc="F F F"
C        0.03140000       1.57440000       0.07640000
C        0.01190000       0.05230000      -0.09540000
C        0.86970000      -0.47280000      -1.26140000
C        2.36330000      -0.16400000      -1.08220000
C        0.64480000      -1.98280000      -1.44410000
C        1.17240000      -2.54980000      -2.74650000
O        1.36480000      -1.87720000      -3.73900000
C        1.44930000      -4.04690000      -2.81190000
O        1.80960000      -4.44560000      -4.09920000
H        1.02480000       1.94490000       0.34600000
H       -0.27310000       2.07940000      -0.84720000
H       -0.65860000       1.88460000       0.86720000
H        0.33980000      -0.42640000       0.83820000
H       -1.02530000      -0.27160000      -0.25250000
H        0.53210000       0.01390000      -2.18480000
H        2.94680000      -0.54640000      -1.92400000
H        2.54510000       0.91210000      -1.02220000
H        2.75030000      -0.61930000      -0.16190000
H        1.06660000      -2.55290000      -0.60510000
H       -0.43260000      -2.20790000      -1.43570000
H        2.24570000      -4.26660000      -2.07860000
H        0.55550000      -4.58830000      -2.46140000
H        1.85920000      -3.62050000      -4.60910000
