18
Properties=species:S:1:pos:R:3 gdb_112485=T pbc="F F F"
C        0.37290000       1.39390000      -0.20740000
N        0.45300000      -0.05500000      -0.07910000
C        0.50170000      -0.76630000      -1.10500000
O        0.50150000      -0.44880000      -2.45270000
C        0.83080000      -1.84700000      -2.81280000
C        2.21400000      -1.91010000      -3.42800000
O        2.26410000      -1.16140000      -4.62750000
C        0.67890000      -2.25410000      -1.32530000
O        1.79650000      -2.85370000      -0.72040000
H        1.12810000       1.85040000       0.44030000
H        0.51370000       1.75760000      -1.23180000
H       -0.60500000       1.73320000       0.15170000
H        0.07070000      -2.23020000      -3.49750000
H        2.95780000      -1.57020000      -2.69480000
H        2.45280000      -2.94710000      -3.68430000
H        2.00490000      -0.26040000      -4.40210000
H       -0.23530000      -2.83080000      -1.13380000
H        1.93650000      -2.40300000       0.12050000
