14
Properties=species:S:1:pos:R:3 gdb_35314=T pbc="F F F"
N       -0.10550000      -1.14700000      -0.23320000
C       -0.04530000      -0.00300000      -0.08450000
C        0.04680000       1.44910000       0.08080000
N       -0.12600000       1.93420000       1.49420000
C        1.12510000       2.72450000       1.36130000
C        2.26430000       1.75510000       1.20840000
C        1.44000000       2.09570000      -0.00130000
C        1.23690000       4.07070000       1.81080000
N        1.30530000       5.16640000       2.17770000
H       -0.64650000       1.93150000      -0.61460000
H       -0.94540000       2.52860000       1.57100000
H        3.25660000       2.19190000       1.20830000
H        2.17060000       0.78920000       1.69500000
H        1.85640000       2.54160000      -0.89350000
