9
Properties=species:S:1:pos:R:3 gdb_21875=T pbc="F F F"
O       -0.12530000       1.52740000      -0.40320000
C       -0.11380000       0.28200000       0.09350000
N       -1.31840000      -0.34010000      -0.23520000
C       -1.72560000      -1.46140000       0.00750000
O       -2.23340000      -2.49150000       0.17250000
N        1.15160000      -3.15670000      -0.30460000
N        2.08010000      -3.60150000       0.07850000
O        0.79140000      -0.20320000       0.71820000
H        0.72200000       1.92330000      -0.15480000
