19
Properties=species:S:1:pos:R:3 gdb_57923=T pbc="F F F"
C        0.23170000       1.28070000       0.97390000
C       -0.09370000      -0.10690000       0.41700000
C        0.43540000      -1.22790000       1.33420000
C       -1.57920000      -0.27760000       0.18860000
N       -2.46490000       0.48590000       0.64420000
O       -1.76270000      -1.43260000      -0.60140000
C       -2.99900000      -1.90050000      -0.95750000
N       -2.83930000      -3.04030000      -1.68080000
O       -4.06470000      -1.40790000      -0.67000000
H        1.31370000       1.38930000       1.09780000
H       -0.12470000       2.06980000       0.30760000
H       -0.24820000       1.43100000       1.94410000
H        0.38700000      -0.22570000      -0.56320000
H        0.20700000      -2.21700000       0.92970000
H        1.52080000      -1.14470000       1.44440000
H       -0.01320000      -1.15200000       2.33020000
H       -3.40000000       0.17450000       0.38400000
H       -1.92720000      -3.30740000      -2.00640000
H       -3.65520000      -3.41980000      -2.12810000
