20
Properties=species:S:1:pos:R:3 gdb_14372=T pbc="F F F"
C       -0.01370000       1.50930000      -0.23480000
C        1.52910000       1.55130000       0.08900000
C        1.27880000       0.30530000       0.96400000
C        1.75880000      -1.10450000       1.39060000
C        0.38150000      -1.06760000       2.17050000
C        0.68990000       0.43400000       2.39750000
C       -0.73520000      -0.95070000       1.08560000
C        0.03690000      -0.01090000       0.12170000
H       -0.59130000       2.10490000       0.47580000
H       -0.32000000       1.77540000      -1.24900000
H        2.12220000       1.33330000      -0.80460000
H        1.93210000       2.44370000       0.57460000
H        1.89670000      -1.84880000       0.60040000
H        2.59980000      -1.12910000       2.08870000
H        0.20260000      -1.74750000       3.00480000
H        1.47050000       0.60720000       3.14330000
H       -0.15240000       1.10960000       2.57330000
H       -0.99630000      -1.90510000       0.61910000
H       -1.64940000      -0.52570000       1.51250000
H        0.32680000      -0.55120000      -0.78670000
