13
Properties=species:S:1:pos:R:3 gdb_125351=T pbc="F F F"
C       -0.01740000       1.52270000       0.08120000
C       -0.01020000       0.03950000      -0.01210000
C       -0.03720000      -0.85240000      -1.06030000
N       -0.01560000      -2.19710000      -0.67290000
C        0.02460000      -2.09950000       0.61740000
O        0.06390000      -2.90150000       1.68790000
N        0.09390000      -2.01940000       2.82360000
N        0.07340000      -0.82360000       2.43280000
N        0.03070000      -0.81640000       1.08770000
H        0.88030000       1.90550000       0.57960000
H       -0.05280000       1.94780000      -0.92420000
H       -0.88640000       1.89330000       0.63660000
H       -0.07220000      -0.59510000      -2.10890000
