19
Properties=species:S:1:pos:R:3 gdb_58374=T pbc="F F F"
C        0.63910000      -0.33850000       1.30530000
N        0.08530000      -0.14170000      -0.02930000
C        1.01840000      -0.54980000      -1.07380000
C       -1.25660000      -0.68470000      -0.15880000
C       -2.01360000      -0.17620000      -1.41510000
C       -2.13300000       1.27400000      -1.44640000
C       -2.25160000       2.46900000      -1.46810000
C       -1.28210000      -2.17320000      -0.14310000
N       -1.23820000      -3.32870000      -0.12950000
H        1.58310000       0.20790000       1.38410000
H       -0.04910000       0.06490000       2.05450000
H        0.83440000      -1.39770000       1.54760000
H        1.22300000      -1.63410000      -1.07760000
H        0.64290000      -0.26280000      -2.05880000
H        1.96440000      -0.02420000      -0.91910000
H       -1.82300000      -0.34820000       0.71660000
H       -1.51640000      -0.54030000      -2.32020000
H       -3.00840000      -0.63650000      -1.41340000
H       -2.35030000       3.52600000      -1.49220000
