17
Properties=species:S:1:pos:R:3 gdb_38997=T pbc="F F F"
C        0.06210000       1.56540000       0.15580000
C        1.51040000       1.92190000      -0.14570000
C        2.15070000       0.87130000      -0.67870000
C        3.44180000       0.26390000      -0.31260000
C        3.17770000      -0.96460000       0.17480000
C        1.70770000      -1.30270000       0.00150000
O        0.75250000      -0.73110000       0.99670000
C        0.05450000       0.03530000      -0.03780000
C        1.19720000      -0.27380000      -0.99800000
H       -0.19340000       1.84380000       1.18560000
H       -0.68580000       2.04000000      -0.49620000
H        1.99600000       2.78840000       0.28890000
H        4.39520000       0.77610000      -0.26740000
H        3.89450000      -1.61350000       0.66350000
H        1.49140000      -2.36390000      -0.14700000
H       -0.93510000      -0.39170000      -0.23290000
H        1.06410000      -0.51050000      -2.05510000
