15
Properties=species:S:1:pos:R:3 gdb_43587=T pbc="F F F"
O        0.03550000       0.04970000       0.17140000
C       -0.00390000       1.23690000      -0.00940000
C       -1.27010000       2.07470000      -0.26730000
C       -0.72490000       3.35250000      -0.94990000
C       -1.42830000       4.57480000      -0.55930000
N       -1.99810000       5.52560000      -0.23400000
N        0.73980000       3.46590000      -0.66040000
C        1.05080000       3.39730000       0.76060000
C        1.16680000       2.16960000      -0.08850000
H       -1.96660000       1.52300000      -0.89930000
H       -1.77810000       2.27810000       0.67990000
H       -0.80650000       3.24930000      -2.03680000
H        1.96190000       3.91040000       1.05000000
H        0.24470000       3.45690000       1.48750000
H        2.13430000       1.77290000      -0.37330000
