17
Properties=species:S:1:pos:R:3 gdb_120430=T pbc="F F F"
C       -0.01300000       1.48740000      -0.05400000
C       -0.09430000      -0.02730000      -0.08090000
O        0.67460000      -0.49250000      -1.19420000
C        0.74180000      -1.86840000      -1.30420000
O       -0.52600000      -2.44360000      -1.65750000
C       -0.42610000      -3.10120000      -2.86060000
O       -1.35040000      -3.66430000      -3.36990000
C        0.98100000      -2.96720000      -3.32670000
C        1.66040000      -2.25300000      -2.43660000
H        1.02390000       1.81900000       0.05100000
H       -0.41760000       1.90950000      -0.97790000
H       -0.59080000       1.87980000       0.78800000
H        0.31020000      -0.46200000       0.84670000
H       -1.13220000      -0.36600000      -0.18510000
H        1.03200000      -2.32620000      -0.34380000
H        1.31690000      -3.39850000      -4.25800000
H        2.69630000      -1.94410000      -2.46170000
