17
Properties=species:S:1:pos:R:3 gdb_87268=T pbc="F F F"
C       -0.42960000       1.36500000       0.18560000
C        0.17510000       0.00020000      -0.01390000
O        0.71960000      -0.58220000       0.91860000
C        0.09900000      -0.66740000      -1.34530000
C        1.23370000      -1.67350000      -1.65990000
C       -0.03310000      -2.27900000      -1.24940000
O       -0.24640000      -2.86510000      -0.03930000
C       -0.59630000      -0.08440000      -2.51020000
O       -1.24850000       0.93290000      -2.53340000
H       -0.01980000       2.08200000      -0.53120000
H       -1.50470000       1.33600000      -0.01210000
H       -0.23500000       1.68480000       1.21000000
H        1.53290000      -1.73100000      -2.70160000
H        2.04290000      -1.66410000      -0.93840000
H       -0.68090000      -2.69790000      -2.01310000
H        0.25110000      -2.34370000       0.62060000
H       -0.48400000      -0.70200000      -3.43310000
