17
Properties=species:S:1:pos:R:3 gdb_23177=T pbc="F F F"
O       -0.10860000       1.28280000       0.05910000
N        0.00530000      -0.11570000       0.03660000
C       -1.13410000      -0.67740000      -0.02260000
C       -2.51210000      -0.05050000      -0.03330000
C       -3.41670000      -1.25950000       0.05200000
C       -2.73490000      -2.40630000       0.06750000
C       -1.27010000      -2.17030000      -0.02650000
C       -0.30170000      -3.03560000      -0.76780000
N       -0.31090000      -3.03170000       0.69660000
H        0.81060000       1.56460000       0.11900000
H       -2.63410000       0.64950000       0.80290000
H       -2.66990000       0.54400000      -0.94330000
H       -4.49580000      -1.17160000       0.09170000
H       -3.15190000      -3.40350000       0.12980000
H       -0.65090000      -3.95650000      -1.22810000
H        0.50200000      -2.52430000      -1.29070000
H        0.44210000      -2.43380000       1.03510000
