21
Properties=species:S:1:pos:R:3 gdb_115408=T pbc="F F F"
C        0.47280000       1.38270000       0.55200000
C        0.13870000      -0.02350000       0.04810000
C       -1.35760000      -0.28730000      -0.05190000
C       -1.74560000      -1.70520000      -0.54980000
C       -2.83850000      -2.17620000       0.45870000
C       -3.16720000      -0.85950000       1.20860000
O       -1.94300000      -0.16150000       1.24650000
C       -3.99460000      -2.82080000      -0.14080000
C       -4.96170000      -3.33510000      -0.63700000
H        1.55470000       1.52790000       0.62550000
H        0.07820000       2.14870000      -0.12500000
H        0.03520000       1.55170000       1.53920000
H        0.57980000      -0.18510000      -0.94340000
H        0.57460000      -0.77770000       0.71550000
H       -1.81670000       0.46490000      -0.71620000
H       -2.13490000      -1.67870000      -1.56910000
H       -0.88800000      -2.38270000      -0.53610000
H       -2.38010000      -2.86310000       1.17830000
H       -3.93810000      -0.29690000       0.65810000
H       -3.51030000      -1.01820000       2.23320000
H       -5.81360000      -3.79650000      -1.07130000
