21
Properties=species:S:1:pos:R:3 gdb_95426=T pbc="F F F"
C       -0.01500000       1.57040000       0.01620000
C        0.02550000       0.04040000       0.00140000
C        0.67840000      -0.50580000      -1.27860000
C        0.61590000      -2.03970000      -1.33870000
C        0.93890000      -2.67560000      -0.01960000
C        1.00950000      -1.99860000       1.13670000
C        0.75360000      -0.51590000       1.23610000
C        1.34240000      -2.73800000       2.36640000
O        1.42170000      -2.24070000       3.46780000
H        0.99670000       1.98960000      -0.04040000
H       -0.58560000       1.96110000      -0.83290000
H       -0.47830000       1.94650000       0.93430000
H       -1.00970000      -0.33080000       0.03070000
H        0.19860000      -0.07780000      -2.16570000
H        1.72840000      -0.18420000      -1.30510000
H       -0.38730000      -2.37060000      -1.64890000
H        1.29360000      -2.42670000      -2.11040000
H        1.11580000      -3.75060000      -0.01080000
H        1.71160000       0.00680000       1.37250000
H        0.18700000      -0.31370000       2.15160000
H        1.52260000      -3.82690000       2.21310000
