18
Properties=species:S:1:pos:R:3 gdb_95097=T pbc="F F F"
C        0.00750000       1.57960000      -0.02110000
C        0.03440000       0.05360000       0.04460000
C        0.78670000      -0.60600000      -1.13660000
O        1.31590000      -1.84460000      -0.66280000
C        1.54880000      -1.72150000       0.70500000
C        2.28880000      -0.52930000       1.22950000
C        0.75550000      -0.54550000       1.25870000
C        0.07150000      -0.59800000       2.51400000
N       -0.48720000      -0.63300000       3.52740000
H        1.02090000       1.99420000      -0.00960000
H       -0.48550000       1.92110000      -0.93710000
H       -0.53920000       1.99850000       0.82840000
H       -0.99370000      -0.32500000       0.06940000
H        0.13960000      -0.82490000      -1.98920000
H        1.59790000       0.04880000      -1.48640000
H        1.60740000      -2.67870000       1.20790000
H        2.78640000      -0.64020000       2.18580000
H        2.77830000       0.14890000       0.54000000
