16
Properties=species:S:1:pos:R:3 gdb_52082=T pbc="F F F"
O        0.33330000       0.06630000      -0.90410000
C        0.16140000       1.07940000      -0.26060000
N        1.10020000       1.68600000       0.51540000
C        2.44730000       1.16920000       0.65300000
C        3.50190000       2.14150000       0.16580000
C        4.79240000       1.65230000      -0.36810000
O        3.80300000       2.16750000      -1.23980000
C        3.49970000       3.51530000       0.76120000
O        2.76550000       3.85810000       1.65580000
H       -0.80190000       1.62500000      -0.23550000
H        0.86080000       2.51330000       1.03880000
H        2.65610000       0.92640000       1.70240000
H        2.49350000       0.25050000       0.06520000
H        5.69370000       2.25500000      -0.26260000
H        4.94780000       0.57520000      -0.40740000
H        4.22570000       4.21180000       0.29020000
