20
Properties=species:S:1:pos:R:3 gdb_99484=T pbc="F F F"
C        0.10490000       1.57440000       0.23080000
C        0.17780000       0.04770000       0.19420000
C        0.60990000      -0.51140000      -1.17820000
C        1.96450000      -0.09270000      -1.53810000
N        3.04070000       0.23740000      -1.80250000
C        0.42390000      -2.05650000      -1.27290000
O       -0.34510000      -2.60670000      -0.52560000
C        1.19300000      -2.78640000      -2.35570000
C        0.78840000      -4.25100000      -2.50300000
H        1.07580000       2.02990000       0.01210000
H       -0.61720000       1.95650000      -0.49950000
H       -0.21050000       1.91740000       1.22010000
H        0.87510000      -0.31930000       0.95470000
H       -0.79270000      -0.39810000       0.42330000
H       -0.06190000      -0.10430000      -1.95080000
H        1.06910000      -2.23280000      -3.29660000
H        2.26110000      -2.68850000      -2.11950000
H        0.93160000      -4.79010000      -1.56370000
H       -0.26670000      -4.34250000      -2.77420000
H        1.38780000      -4.73620000      -3.27760000
