15
Properties=species:S:1:pos:R:3 gdb_64642=T pbc="F F F"
O        0.19030000       1.50120000      -0.03740000
C        0.13180000       0.09020000       0.02500000
C        0.67230000      -0.44330000       1.33200000
C       -0.17850000      -1.27580000       1.93310000
C       -1.47570000      -1.45030000       1.18390000
C       -1.36030000      -0.37790000       0.10360000
O       -2.23760000       0.13880000      -0.53120000
C        0.77630000      -0.54320000      -1.13220000
C        1.27800000      -1.07150000      -2.08920000
H       -0.49580000       1.76890000      -0.66550000
H        1.66050000      -0.17180000       1.68010000
H        0.02030000      -1.78970000       2.86620000
H       -1.56910000      -2.44130000       0.71880000
H       -2.37730000      -1.29980000       1.78740000
H        1.73060000      -1.52850000      -2.93460000
