19
Properties=species:S:1:pos:R:3 gdb_117137=T pbc="F F F"
C       -0.24060000       1.49410000      -0.23600000
C       -0.02870000       0.00190000      -0.06890000
O       -1.32590000      -0.62250000      -0.10240000
C       -1.35850000      -1.94760000       0.10460000
N       -0.29950000      -2.63160000       0.25910000
N       -2.69850000      -2.38640000       0.11120000
C       -3.78730000      -1.44670000       0.38940000
C       -3.01590000      -3.68210000      -0.24540000
O       -4.13540000      -4.13720000      -0.25420000
H        0.72590000       2.00610000      -0.22380000
H       -0.73560000       1.71600000      -1.18560000
H       -0.85370000       1.89700000       0.57520000
H        0.58570000      -0.42010000      -0.86990000
H        0.45780000      -0.24620000       0.87920000
H       -0.48940000      -3.60010000       0.49380000
H       -3.90100000      -0.72600000      -0.42360000
H       -4.69690000      -2.03750000       0.48830000
H       -3.58850000      -0.90420000       1.31550000
H       -2.12830000      -4.26370000      -0.54450000
