15
Properties=species:S:1:pos:R:3 gdb_24325=T pbc="F F F"
O       -0.03640000       1.34910000       0.00990000
C        1.22720000       1.83320000       0.00020000
C        2.12350000       0.79310000      -0.01440000
C        3.54620000       0.70120000      -0.02890000
C        4.11860000      -0.53720000      -0.04140000
C        3.32670000      -1.73500000      -0.04040000
C        1.96310000      -1.69350000      -0.02680000
C        1.32120000      -0.42050000      -0.01340000
C        0.01310000      -0.00320000       0.00180000
H        1.32260000       2.90610000       0.00530000
H        4.15390000       1.59970000      -0.02980000
H        5.19940000      -0.63140000      -0.05260000
H        3.83680000      -2.69260000      -0.05080000
H        1.37440000      -2.60460000      -0.02620000
H       -0.93660000      -0.51130000       0.00830000
