19
Properties=species:S:1:pos:R:3 gdb_55123=T pbc="F F F"
C        0.12600000       1.60550000       0.14910000
C        0.16310000       0.11510000       0.01010000
C       -0.90350000      -0.83940000       0.46790000
C        0.51030000      -1.01690000       0.97580000
C        1.37610000      -1.64220000      -0.12140000
N        0.99240000      -0.52330000      -1.01740000
C        0.61690000      -0.58220000      -2.34540000
N        1.25020000      -1.58270000      -3.07030000
O       -0.19790000       0.17850000      -2.83510000
H        1.13800000       2.02190000       0.18620000
H       -0.39480000       2.04510000      -0.70620000
H       -0.40220000       1.89300000       1.06310000
H       -1.60090000      -0.43580000       1.19550000
H       -1.33780000      -1.55660000      -0.22380000
H        0.77650000      -0.96080000       2.02240000
H        2.44850000      -1.64480000       0.10300000
H        1.07530000      -2.63450000      -0.47800000
H        2.16360000      -1.87980000      -2.76180000
H        1.16870000      -1.45360000      -4.06750000
