23
Properties=species:S:1:pos:R:3 gdb_57396=T pbc="F F F"
C       -0.06640000       1.54030000       0.04530000
C        0.00820000       0.00500000      -0.00250000
C        0.74800000      -0.50060000       1.25790000
C       -1.42880000      -0.56680000      -0.00680000
C        0.74250000      -0.46300000      -1.24200000
C        1.28770000       0.25750000      -2.22090000
C        1.91460000      -0.63390000      -3.25170000
O        1.68470000      -1.96070000      -2.78760000
C        0.97240000      -1.92800000      -1.55690000
H        0.93240000       1.98750000       0.06740000
H       -0.59960000       1.94080000      -0.82260000
H       -0.59900000       1.86490000       0.94510000
H        0.23400000      -0.15790000       2.16230000
H        0.78770000      -1.59350000       1.29430000
H        1.77540000      -0.12410000       1.28800000
H       -1.97980000      -0.23800000      -0.89360000
H       -1.43030000      -1.66100000       0.00520000
H       -1.97540000      -0.22530000       0.87870000
H        1.30080000       1.33620000      -2.30230000
H        1.46790000      -0.50410000      -4.25110000
H        2.99730000      -0.45710000      -3.36090000
H        1.56020000      -2.43660000      -0.77670000
H        0.02940000      -2.48710000      -1.66200000
