19
Properties=species:S:1:pos:R:3 gdb_71808=T pbc="F F F"
C       -0.08860000       1.53180000       0.05400000
C        0.04040000       0.03850000      -0.04210000
C       -0.27360000      -0.76360000      -1.30190000
C       -0.68980000      -1.91160000      -0.35260000
C        0.46300000      -2.86760000      -0.04570000
N        1.77650000      -2.42700000      -0.58140000
C        1.39100000      -2.08720000       0.80450000
C        0.70590000      -0.76380000       1.03050000
N       -0.76600000      -0.91200000       0.82570000
H        0.74490000       2.02610000      -0.45870000
H       -1.02060000       1.87170000      -0.41100000
H       -0.09020000       1.86380000       1.09640000
H       -1.15120000      -0.33350000      -1.79300000
H        0.51560000      -0.94980000      -2.02910000
H       -1.64020000      -2.40780000      -0.54150000
H        0.27780000      -3.92570000       0.10230000
H        2.42190000      -3.21520000      -0.55610000
H        1.94180000      -2.52610000       1.62990000
H        0.96960000      -0.21640000       1.93030000
