15
Properties=species:S:1:pos:R:3 gdb_125756=T pbc="F F F"
C       -0.27880000       1.44340000       0.09450000
C        0.02030000      -0.01420000       0.04690000
N        1.13490000      -0.48640000      -0.44760000
O        1.00070000      -1.87530000      -0.29240000
C       -0.19220000      -2.07770000       0.27640000
C       -0.60120000      -3.47370000       0.59120000
C       -0.94260000      -3.65660000       2.07390000
O       -0.70400000      -4.66280000       2.68150000
N       -0.84730000      -0.98190000       0.51500000
H       -0.44470000       1.76170000       1.12790000
H        0.54830000       2.01410000      -0.32960000
H       -1.19270000       1.66050000      -0.46640000
H       -1.51770000      -3.70640000       0.03200000
H        0.16880000      -4.18970000       0.30070000
H       -1.45160000      -2.78560000       2.53590000
