19
Properties=species:S:1:pos:R:3 gdb_55033=T pbc="F F F"
N        0.15620000       1.16720000       0.39540000
C        0.06210000      -0.05540000      -0.20250000
O        0.89690000      -0.48570000      -0.97090000
C       -1.21750000      -0.82100000       0.09120000
N       -1.08600000      -2.03920000       0.89950000
C       -1.91350000      -0.93540000       1.40680000
C       -1.45650000      -0.28490000       2.67480000
C       -2.19150000       0.92880000       3.21010000
C       -2.29990000      -0.39790000       3.91790000
H        1.00150000       1.69760000       0.25700000
H       -0.49220000       1.45450000       1.10830000
H       -1.84910000      -0.87650000      -0.79480000
H       -1.65060000      -2.79130000       0.51590000
H       -2.99720000      -1.04700000       1.34170000
H       -0.38170000      -0.31220000       2.81810000
H       -1.61570000       1.71820000       3.68150000
H       -3.05950000       1.28020000       2.66120000
H       -3.24080000      -0.93360000       3.84290000
H       -1.79490000      -0.51720000       4.86950000
