17
Properties=species:S:1:pos:R:3 gdb_34285=T pbc="F F F"
N        0.10260000      -1.11970000       0.03580000
C        0.03750000       0.03360000       0.01500000
C       -0.05400000       1.48440000       0.01180000
C       -0.71000000       2.16190000       1.24660000
C       -0.49910000       3.56960000       0.64360000
C        1.04610000       3.53230000       0.40520000
N        1.30250000       2.13660000      -0.05750000
C       -1.12450000       3.37210000      -0.73030000
C       -0.86700000       2.12180000      -1.11780000
H       -1.76100000       1.90160000       1.37770000
H       -0.15230000       1.97680000       2.16930000
H       -0.84710000       4.42200000       1.22550000
H        1.35570000       4.25380000      -0.35630000
H        1.59170000       3.75110000       1.32940000
H        1.91370000       1.66670000       0.60370000
H       -1.58650000       4.15560000      -1.31720000
H       -1.05420000       1.64710000      -2.07040000
