19
Properties=species:S:1:pos:R:3 gdb_71939=T pbc="F F F"
C        0.07010000       1.53070000       0.03160000
C       -0.01730000       0.01930000      -0.00770000
C        0.33880000      -0.68540000      -1.36480000
C       -0.94130000      -1.53310000      -1.24140000
O       -0.75390000      -2.68180000      -0.38120000
C       -1.16540000      -1.93800000       0.79410000
C       -0.00220000      -1.59510000       1.71230000
O        0.70380000      -0.51590000       1.10460000
C       -1.41710000      -0.67340000      -0.04140000
H        1.11520000       1.85070000      -0.02940000
H       -0.47490000       1.97800000      -0.80520000
H       -0.34810000       1.91430000       0.96750000
H        0.28880000       0.00990000      -2.20900000
H        1.28250000      -1.23340000      -1.38910000
H       -1.52350000      -1.77650000      -2.13190000
H       -2.00230000      -2.42560000       1.30380000
H       -0.37140000      -1.29080000       2.70350000
H        0.67130000      -2.45050000       1.83850000
H       -2.33560000      -0.09680000       0.03650000
