17
Properties=species:S:1:pos:R:3 gdb_29995=T pbc="F F F"
C       -0.09870000       1.59430000      -0.00710000
C       -0.00330000       0.05870000       0.02590000
C        0.82910000      -0.52250000      -1.12490000
C        1.85470000      -1.27600000      -0.68000000
C        1.81230000      -1.27900000       0.78210000
C        0.74920000      -0.51450000       1.18720000
N        0.76880000      -0.55740000       2.55570000
C        1.84670000      -1.34810000       2.89810000
N        2.50040000      -1.80250000       1.84790000
H        0.89790000       2.04240000       0.03160000
H       -0.59160000       1.93080000      -0.92440000
H       -0.67920000       1.97180000       0.84140000
H       -1.02120000      -0.35550000      -0.02900000
H        0.58420000      -0.31510000      -2.15870000
H        2.58350000      -1.79210000      -1.29080000
H        0.13990000      -0.10940000       3.20060000
H        2.09270000      -1.54800000       3.93040000
