18
Properties=species:S:1:pos:R:3 gdb_87078=T pbc="F F F"
C       -0.08180000       1.51890000      -0.08960000
C        0.00220000       0.02000000       0.06520000
N        1.30370000      -0.61980000      -0.14670000
C        0.69590000      -0.67200000       1.21180000
C        1.43940000       0.08310000       2.29960000
C        0.12560000      -1.92490000       1.62830000
C       -0.33100000      -2.98660000       1.99520000
C       -0.85060000      -4.17730000       2.39600000
C       -1.31170000      -5.23570000       2.75190000
H        0.82430000       2.01450000       0.26300000
H       -0.21030000       1.77630000      -1.14650000
H       -0.93980000       1.91930000       0.46040000
H       -0.86890000      -0.51440000      -0.31090000
H        1.19270000      -1.51850000      -0.60970000
H        1.90080000       0.98510000       1.89560000
H        0.76120000       0.36050000       3.11210000
H        2.23200000      -0.54480000       2.71670000
H       -1.71720000      -6.16550000       3.06490000
