20
Properties=species:S:1:pos:R:3 gdb_22817=T pbc="F F F"
C       -0.01610000       1.56010000      -0.00380000
C        0.10940000       0.03670000       0.03410000
C        0.78580000      -0.52190000      -1.23720000
C        1.02850000      -2.00470000      -1.15100000
C        1.10260000      -2.65920000       0.00580000
C        1.01670000      -1.99250000       1.35290000
C        0.81190000      -0.49870000       1.26290000
N        1.17480000       0.33670000       2.15780000
O        1.78060000      -0.29200000       3.26150000
H        0.96960000       2.03440000      -0.01590000
H       -0.55860000       1.86910000      -0.90320000
H       -0.54880000       1.93770000       0.87160000
H       -0.90250000      -0.39840000       0.05440000
H        0.15490000      -0.29340000      -2.10490000
H        1.73410000       0.00810000      -1.41270000
H        1.14360000      -2.54650000      -2.08640000
H        1.26770000      -3.73380000       0.01460000
H        0.20270000      -2.43470000       1.94830000
H        1.92380000      -2.18980000       1.93490000
H        2.02370000       0.46090000       3.80980000
