21
Properties=species:S:1:pos:R:3 gdb_57698=T pbc="F F F"
C        0.07250000       1.60940000      -0.00500000
C        0.01210000       0.07810000       0.02650000
C        0.85280000      -0.48940000       1.19190000
C       -1.44500000      -0.45620000       0.07080000
C       -2.25620000      -0.06480000       1.32570000
C       -3.61230000      -0.59840000       1.28310000
C       -4.72400000      -1.05110000       1.22200000
C        0.61340000      -0.49320000      -1.25530000
O        1.06160000       0.15050000      -2.16730000
H        1.09790000       1.94860000      -0.17270000
H       -0.53940000       2.01120000      -0.81740000
H       -0.27670000       2.03920000       0.93820000
H        0.47740000      -0.13590000       2.15600000
H        0.83420000      -1.58480000       1.20460000
H        1.89640000      -0.16940000       1.10920000
H       -1.98350000      -0.09270000      -0.81180000
H       -1.43260000      -1.55040000      -0.00280000
H       -1.75630000      -0.42980000       2.23050000
H       -2.30040000       1.02670000       1.41750000
H       -5.70940000      -1.44430000       1.18050000
H        0.61080000      -1.60930000      -1.29100000
