16
Properties=species:S:1:pos:R:3 gdb_14074=T pbc="F F F"
C       -0.07770000       1.49650000      -0.12050000
C        0.00580000      -0.00310000       0.01810000
N        1.34100000      -0.60890000      -0.11780000
C        0.67280000      -0.65070000       1.17340000
C        1.19080000      -0.13900000       2.51420000
O        0.65890000      -1.35540000       3.14490000
C        0.23070000      -1.85890000       1.93030000
N       -0.30080000      -2.95020000       1.61680000
H        0.80570000       1.97470000       0.31110000
H       -0.13230000       1.78200000      -1.17600000
H       -0.96950000       1.88560000       0.38180000
H       -0.83220000      -0.56430000      -0.39200000
H        1.28250000      -1.52840000      -0.55200000
H        2.27740000      -0.08810000       2.61340000
H        0.71570000       0.75420000       2.92650000
H       -0.43600000      -3.55890000       2.42450000
