22
Properties=species:S:1:pos:R:3 gdb_9433=T pbc="F F F"
C       -0.03280000       1.37920000      -0.08600000
O       -0.02280000      -0.02490000      -0.02860000
C        0.67960000      -0.52200000       1.09200000
C        0.66260000      -2.04360000       1.03040000
C        1.34400000      -2.70180000       2.22920000
C        1.23930000      -4.22860000       2.17340000
O        2.69860000      -2.26040000       2.22470000
C        3.38750000      -2.43940000       3.43890000
H        0.98580000       1.79490000      -0.15020000
H       -0.58840000       1.66870000      -0.98170000
H       -0.52520000       1.82330000       0.79480000
H        1.71640000      -0.15460000       1.09690000
H        0.20500000      -0.17040000       2.02620000
H       -0.37680000      -2.38510000       0.97540000
H        1.16010000      -2.37050000       0.11010000
H        0.86080000      -2.34530000       3.15680000
H        0.18990000      -4.53940000       2.16390000
H        1.72160000      -4.60800000       1.26700000
H        1.71550000      -4.69920000       3.03810000
H        4.36400000      -1.96060000       3.32820000
H        2.85700000      -1.96790000       4.28160000
H        3.54880000      -3.49880000       3.68630000
