18
Properties=species:S:1:pos:R:3 gdb_20239=T pbc="F F F"
C       -0.03180000       1.55220000      -0.12040000
C        1.41810000       1.98370000       0.05540000
C        2.15210000       1.45150000       1.26650000
C        1.37420000       0.53300000       2.19930000
C        0.73660000      -0.49170000       1.27060000
C        0.00250000       0.04040000       0.05940000
C        1.43230000      -0.45300000      -0.07900000
C        2.32590000       0.77370000      -0.08160000
H       -0.70520000       2.04430000       0.59320000
H       -0.38470000       1.80720000      -1.12690000
H        1.72520000       2.94930000      -0.33220000
H        2.94540000       2.06470000       1.68080000
H        2.05640000       0.03750000       2.90050000
H        0.63150000       1.07520000       2.79850000
H        0.39700000      -1.43370000       1.68820000
H       -0.82310000      -0.54910000      -0.32490000
H        1.69760000      -1.34470000      -0.63160000
H        3.25480000       0.79320000      -0.63610000
