17
Properties=species:S:1:pos:R:3 gdb_72191=T pbc="F F F"
O       -0.14220000       1.35580000       0.07380000
C        0.03090000      -0.02380000       0.01940000
C        1.13040000      -0.74120000       0.82920000
C        1.08550000      -1.85330000      -0.25670000
O        0.09530000      -2.81730000       0.06750000
C       -1.13460000      -2.22240000      -0.25790000
C       -1.05320000      -1.30390000      -1.42900000
C       -1.33710000      -0.73960000      -0.01940000
C        0.40510000      -0.83750000      -1.27180000
H        0.72490000       1.77020000       0.00360000
H        2.07250000      -0.18140000       0.77660000
H        0.93490000      -1.04730000       1.85960000
H        2.00920000      -2.36830000      -0.52040000
H       -1.97410000      -2.88990000      -0.10860000
H       -1.65740000      -1.34430000      -2.32520000
H       -2.24740000      -0.33050000       0.40300000
H        0.98320000      -0.43300000      -2.09840000
