14
Properties=species:S:1:pos:R:3 gdb_14080=T pbc="F F F"
C       -0.04370000       1.52560000      -0.11850000
C       -0.00150000       0.02770000       0.01760000
O        1.28530000      -0.60690000      -0.09180000
C        0.64340000      -0.63850000       1.15520000
C        1.17810000      -0.13620000       2.49360000
O        0.66010000      -1.35270000       3.12310000
C        0.22780000      -1.88430000       1.92360000
O       -0.28000000      -2.93720000       1.72480000
H        0.78460000       1.99390000       0.41960000
H        0.02560000       1.81300000      -1.17220000
H       -0.98760000       1.91620000       0.27570000
H       -0.79640000      -0.52630000      -0.48240000
H        2.26600000      -0.08470000       2.57070000
H        0.70900000       0.75390000       2.91780000
