23
Properties=species:S:1:pos:R:3 gdb_60494=T pbc="F F F"
C        0.06450000       1.58460000       0.13930000
C        0.03060000       0.05770000       0.07530000
O        0.71070000      -0.51930000       1.18990000
C       -1.39700000      -0.49130000      -0.05600000
C       -1.44720000      -2.01550000      -0.19630000
C       -2.87320000      -2.57380000      -0.23330000
C       -2.91040000      -4.10420000      -0.39520000
C       -4.31820000      -4.64490000      -0.31150000
O       -4.86370000      -5.30030000      -1.16140000
H        1.09310000       1.93760000       0.25160000
H       -0.36040000       2.03080000      -0.76570000
H       -0.51840000       1.95030000       0.99450000
H        0.61420000      -0.27480000      -0.79300000
H        0.28760000      -0.18720000       1.98990000
H       -1.97450000      -0.17960000       0.82810000
H       -1.88360000      -0.01770000      -0.91900000
H       -0.91720000      -2.31180000      -1.11160000
H       -0.89210000      -2.46420000       0.63530000
H       -3.40010000      -2.29310000       0.68920000
H       -3.43250000      -2.11130000      -1.05690000
H       -2.46940000      -4.41950000      -1.34540000
H       -2.32980000      -4.56270000       0.41890000
H       -4.85210000      -4.37720000       0.63230000
