13
Properties=species:S:1:pos:R:3 gdb_1426=T pbc="F F F"
O       -0.20300000       1.41320000       0.11600000
C        0.02380000       0.03850000      -0.01780000
C        0.84170000      -0.27110000      -1.29390000
C        0.11540000       0.20180000      -2.53970000
O       -0.13910000      -0.50910000      -3.47710000
C        0.75180000      -0.50000000       1.19970000
O        1.08060000       0.22590000       2.10560000
H        0.18700000       1.66180000       0.96990000
H       -0.93540000      -0.50580000      -0.08190000
H        1.79430000       0.27060000      -1.22350000
H        1.04150000      -1.34230000      -1.39260000
H       -0.17360000       1.27280000      -2.52300000
H        0.96910000      -1.58680000       1.20740000
