19
Properties=species:S:1:pos:R:3 gdb_112528=T pbc="F F F"
C       -0.43840000       0.91760000       0.14490000
O        0.72470000       0.10750000       0.08650000
C        0.93830000      -0.48040000      -1.16150000
C        2.24270000      -1.29720000      -1.22240000
C        1.47970000      -2.43470000      -1.96810000
C        1.69800000      -3.80040000      -1.54130000
N        1.82200000      -4.88810000      -1.16620000
C        0.10490000      -1.76570000      -1.51350000
N       -0.57870000      -2.29860000      -0.36400000
H       -0.39580000       1.72600000      -0.60060000
H       -1.34630000       0.32430000      -0.01650000
H       -0.46860000       1.35890000       1.14350000
H        0.86780000       0.26720000      -1.96560000
H        3.09720000      -0.85800000      -1.73830000
H        2.54630000      -1.60070000      -0.21880000
H        1.60750000      -2.36640000      -3.05180000
H       -0.60050000      -1.66650000      -2.34330000
H       -0.78900000      -3.28500000      -0.47800000
H       -0.02050000      -2.18870000       0.47610000
