20
Properties=species:S:1:pos:R:3 gdb_120064=T pbc="F F F"
O        0.17070000       1.38540000       0.08450000
C        0.03760000      -0.02490000      -0.01220000
C       -1.41340000      -0.49560000       0.13260000
C       -1.53210000      -2.00980000       0.05330000
C       -2.88580000      -2.75100000       0.10640000
C       -3.68730000      -2.14930000      -1.07830000
C       -2.59530000      -2.74180000      -1.96730000
C       -2.21840000      -3.73440000      -0.93490000
N       -1.25150000      -2.65860000      -1.27890000
H       -0.26500000       1.77330000      -0.68080000
H        0.45820000      -0.40890000      -0.95290000
H        0.64510000      -0.43390000       0.80290000
H       -1.80750000      -0.14610000       1.09540000
H       -2.01850000      -0.02360000      -0.65090000
H       -0.83300000      -2.47170000       0.76110000
H       -3.37630000      -2.99870000       1.04620000
H       -4.62650000      -2.68810000      -1.22930000
H       -3.87910000      -1.07220000      -1.08920000
H       -2.56360000      -2.82770000      -3.04530000
H       -1.99490000      -4.79260000      -0.95630000
