21
Properties=species:S:1:pos:R:3 gdb_116908=T pbc="F F F"
C       -0.18320000       1.54270000      -0.10870000
C       -0.22740000       0.02130000      -0.26320000
C        1.04660000      -0.53800000      -0.92910000
C        1.03350000      -1.98690000      -1.09340000
C        1.00430000      -3.18480000      -1.22990000
C        0.97160000      -4.62100000      -1.33890000
O        1.65300000      -5.32170000      -0.32770000
C       -0.25600000      -5.29130000      -1.93720000
C        1.05220000      -5.28340000      -2.68900000
H        0.66890000       1.85510000       0.50540000
H       -0.08860000       2.03840000      -1.08140000
H       -1.09290000       1.91870000       0.36890000
H       -0.35210000      -0.45430000       0.71620000
H       -1.09730000      -0.27280000      -0.86110000
H        1.18190000      -0.06110000      -1.90970000
H        1.92360000      -0.24720000      -0.33480000
H        1.25710000      -5.06810000       0.51370000
H       -0.55670000      -6.22170000      -1.46900000
H       -1.06350000      -4.66020000      -2.28910000
H        1.15040000      -4.64750000      -3.56010000
H        1.61990000      -6.20620000      -2.71840000
