21
Properties=species:S:1:pos:R:3 gdb_115733=T pbc="F F F"
C        0.18590000       1.45230000       0.01630000
O       -0.29770000       0.17700000      -0.34290000
C        0.55000000      -0.50870000      -1.22380000
C        1.75880000      -1.23470000      -0.59030000
O        1.18380000      -2.52410000      -0.87190000
C        0.04370000      -1.93600000      -1.55420000
C       -1.27550000      -2.37020000      -0.99770000
C       -2.49260000      -2.37410000      -1.89160000
C       -1.87270000      -3.67650000      -1.46130000
H        1.14640000       1.39590000       0.55050000
H        0.32030000       2.09620000      -0.86700000
H       -0.55620000       1.90610000       0.67700000
H        0.78650000       0.11770000      -2.09580000
H        2.72220000      -1.09100000      -1.09630000
H        1.88220000      -1.06090000       0.48600000
H        0.08780000      -2.16260000      -2.62980000
H       -1.43370000      -2.09580000       0.03870000
H       -3.43980000      -2.07800000      -1.45590000
H       -2.36660000      -2.06790000      -2.92520000
H       -1.32450000      -4.25030000      -2.20110000
H       -2.39460000      -4.28180000      -0.72880000
