19
Properties=species:S:1:pos:R:3 gdb_87925=T pbc="F F F"
C       -0.27400000       1.49700000       0.09830000
C       -0.08350000       0.00150000       0.14570000
N        1.24600000      -0.51760000      -0.24230000
C        0.78090000      -0.70740000       1.12890000
C        1.54390000      -0.02300000       2.25570000
O        1.04900000      -0.62030000       3.46540000
C        0.39110000      -1.79100000       3.20360000
N       -0.14250000      -2.52510000       4.07950000
C        0.40710000      -2.05930000       1.71400000
H        0.64230000       2.02020000       0.38210000
H       -0.53440000       1.81570000      -0.91640000
H       -1.08100000       1.81180000       0.76870000
H       -0.94570000      -0.57260000      -0.19370000
H        1.16200000      -1.38160000      -0.77260000
H        2.62140000      -0.20980000       2.16930000
H        1.37870000       1.05440000       2.31920000
H       -0.00250000      -2.12840000       5.01070000
H       -0.54850000      -2.46070000       1.37400000
H        1.18220000      -2.80650000       1.49690000
