18
Properties=species:S:1:pos:R:3 gdb_16485=T pbc="F F F"
C        0.01090000       1.47190000       0.03720000
C       -0.00260000      -0.02590000      -0.03270000
C       -0.95860000      -0.88700000       0.80730000
C       -1.09380000      -2.24840000       0.12750000
C        0.41260000      -2.10060000      -0.21030000
C        0.53840000      -1.04340000       0.95640000
C        0.45730000      -0.89180000      -1.19110000
O       -0.36910000      -0.88110000      -2.33520000
H        0.98790000       1.87560000      -0.25290000
H       -0.74120000       1.90400000      -0.63220000
H       -0.20540000       1.82320000       1.05170000
H       -1.64360000      -0.41100000       1.49820000
H       -1.26490000      -3.04350000       0.85850000
H       -1.78290000      -2.34820000      -0.71660000
H        1.04810000      -2.97050000      -0.36710000
H        1.20980000      -0.93320000       1.79510000
H        1.49870000      -0.64690000      -1.44820000
H        0.04980000      -1.41220000      -3.01990000
