18
Properties=species:S:1:pos:R:3 gdb_96714=T pbc="F F F"
C       -0.41230000       1.38360000       0.01350000
N       -0.12610000      -0.04160000       0.04470000
C        0.59310000      -0.59960000      -0.83150000
O        0.88200000      -1.92610000      -0.80350000
C        0.32140000      -2.67850000       0.24990000
C       -0.93310000      -3.45260000      -0.02370000
C        0.40560000      -4.15910000       0.08590000
C        1.27790000       0.00250000      -2.03310000
O        1.20940000       1.16690000      -2.33380000
H        0.49800000       1.99220000       0.04560000
H       -0.95350000       1.67440000      -0.89370000
H       -1.02960000       1.62800000       0.88180000
H        0.45600000      -2.21880000       1.22180000
H       -1.65520000      -3.55580000       0.77820000
H       -1.36130000      -3.36020000      -1.01510000
H        0.84800000      -4.52540000      -0.83350000
H        0.61580000      -4.76040000       0.96300000
H        1.85840000      -0.73290000      -2.62750000
