16
Properties=species:S:1:pos:R:3 gdb_1523=T pbc="F F F"
C        0.05960000       1.50340000      -0.13540000
C        0.00200000      -0.00530000       0.01070000
O        0.64820000      -0.57130000      -1.14090000
C        0.69780000      -1.90480000      -1.19270000
N        0.21090000      -2.65580000      -0.29250000
O        1.33860000      -2.22160000      -2.34080000
C        1.51100000      -3.60220000      -2.61530000
H        1.09500000       1.85180000      -0.18560000
H       -0.45640000       1.82800000      -1.04330000
H       -0.42320000       1.97650000       0.72490000
H        0.51500000      -0.35150000       0.91370000
H       -1.02710000      -0.37530000       0.06020000
H        0.33840000      -3.64150000      -0.49460000
H        2.11200000      -4.09290000      -1.84020000
H        0.54650000      -4.11640000      -2.70560000
H        2.03860000      -3.65520000      -3.56820000
