16
Properties=species:S:1:pos:R:3 gdb_128788=T pbc="F F F"
C       -0.00450000       1.40740000      -0.00950000
O       -0.00180000      -0.00310000       0.00880000
C        0.63620000      -0.56530000      -1.10640000
C        0.59640000      -2.06730000      -1.01240000
C       -0.00330000      -2.75030000       0.05220000
N       -0.02320000      -4.07870000       0.10820000
N        0.54510000      -4.76810000      -0.87940000
C        1.10470000      -4.07880000      -1.87260000
N        1.16460000      -2.75070000      -1.99970000
H        1.01820000       1.81390000      -0.01050000
H       -0.53430000       1.79950000      -0.89090000
H       -0.51960000       1.74160000       0.89330000
H        0.15290000      -0.25710000      -2.04940000
H        1.68930000      -0.24320000      -1.17750000
H       -0.47320000      -2.21850000       0.86990000
H        1.55740000      -4.67390000      -2.66080000
