19
Properties=species:S:1:pos:R:3 gdb_66316=T pbc="F F F"
C       -0.02190000       1.56460000      -0.21200000
C       -0.04590000       0.06570000      -0.02050000
C       -1.36490000      -0.53430000       0.41130000
O       -1.82710000       0.15090000       1.55850000
C       -3.05430000      -0.32610000       2.04340000
C       -3.42740000       0.48560000       3.27240000
O       -4.45360000       0.33810000       3.88000000
C        0.89610000      -0.79990000      -0.74440000
O        1.10350000      -0.49110000       0.63400000
H        0.97890000       1.89420000      -0.49980000
H       -0.72970000       1.86830000      -0.99100000
H       -0.30580000       2.06710000       0.71580000
H       -2.10190000      -0.44580000      -0.40580000
H       -1.22620000      -1.60390000       0.62900000
H       -3.86160000      -0.23410000       1.29690000
H       -3.00030000      -1.39100000       2.32810000
H       -2.65670000       1.23310000       3.56250000
H        0.63680000      -1.83660000      -0.95880000
H        1.60210000      -0.34940000      -1.44100000
