15
Properties=species:S:1:pos:R:3 gdb_44940=T pbc="F F F"
O       -0.04430000       0.00460000      -0.01160000
C       -0.01180000       1.19800000      -0.00960000
O       -1.11510000       1.99870000      -0.01740000
C       -0.61590000       3.35140000       0.16250000
O        0.62960000       3.35160000      -0.49480000
C        1.20380000       2.14490000       0.01000000
C        1.70150000       2.37400000       1.44900000
C        0.66980000       3.15490000       2.23080000
C       -0.43040000       3.62030000       1.64130000
H       -1.29750000       4.03340000      -0.34450000
H        1.98740000       1.80350000      -0.66560000
H        1.90560000       1.41050000       1.93050000
H        2.65260000       2.92120000       1.42580000
H        0.85770000       3.32400000       3.28700000
H       -1.20430000       4.15830000       2.17650000
