13
Properties=species:S:1:pos:R:3 gdb_131001=T pbc="F F F"
O       -0.18370000       0.18450000       0.55010000
C        0.06000000       1.10050000      -0.18610000
C        1.36820000       1.86840000      -0.13540000
O        1.30510000       2.87990000      -1.14530000
C        2.37710000       3.66160000      -1.25780000
N        3.45640000       3.57230000      -0.52660000
O        4.28110000       4.57010000      -0.99520000
N        3.69710000       5.26490000      -2.01390000
C        2.52680000       4.72630000      -2.19450000
H       -0.65050000       1.45930000      -0.96230000
H        1.50750000       2.31790000       0.85520000
H        2.21310000       1.19300000      -0.31560000
H        1.84170000       5.08210000      -2.94690000
