16
Properties=species:S:1:pos:R:3 gdb_97083=T pbc="F F F"
C        0.38160000       1.22450000       0.21640000
N       -0.06460000      -0.10580000      -0.15700000
C        0.36790000      -0.64130000      -1.20500000
N       -0.04560000      -1.88760000      -1.69070000
C        0.92420000      -2.37750000      -2.65210000
C        1.45580000      -1.02140000      -3.17910000
O        1.29520000      -0.12890000      -2.08190000
C        1.98460000      -3.21620000      -2.05730000
N        2.79630000      -3.88920000      -1.58430000
H        1.07010000       1.68590000      -0.50100000
H       -0.48990000       1.87900000       0.33280000
H        0.87720000       1.17990000       1.19300000
H       -0.41390000      -2.51810000      -0.99400000
H        0.44660000      -2.95070000      -3.45230000
H        2.50730000      -1.05000000      -3.46630000
H        0.84530000      -0.68820000      -4.02550000
