21
Properties=species:S:1:pos:R:3 gdb_100336=T pbc="F F F"
C        0.71410000       0.11800000      -1.25430000
C       -0.05910000       0.01430000       0.06520000
C        0.66990000      -0.66490000       1.24530000
O       -0.12680000      -0.52930000       2.41570000
C        0.89110000      -2.17280000       1.00520000
O       -0.34500000      -2.88100000       1.04390000
C        2.03610000      -0.01390000       1.56080000
C        2.00130000       1.43650000       1.69540000
C        1.98740000       2.63440000       1.79360000
H        1.02700000      -0.85940000      -1.63850000
H        0.09010000       0.58250000      -2.02400000
H        1.60850000       0.73810000      -1.14400000
H       -0.33970000       1.01450000       0.40670000
H       -1.00450000      -0.52130000      -0.09690000
H       -0.77580000      -1.24480000       2.36860000
H        1.43110000      -2.35810000       0.06770000
H        1.48750000      -2.58010000       1.82760000
H       -0.80020000      -2.74000000       0.20790000
H        2.39620000      -0.45760000       2.49600000
H        2.75710000      -0.28800000       0.78020000
H        1.97110000       3.69120000       1.89350000
