18
Properties=species:S:1:pos:R:3 gdb_41999=T pbc="F F F"
C        0.00480000       1.39130000      -0.30380000
O        1.30040000       1.89460000      -0.11080000
C        2.10350000       0.74440000       0.14760000
C        3.33470000       1.03660000       1.02270000
C        3.48260000      -0.00950000       2.15330000
C        2.81150000      -1.35310000       1.80930000
N        1.37460000      -1.18400000       1.55370000
C        1.12540000      -0.19310000       0.81830000
O       -0.13010000       0.23400000       0.52650000
H       -0.72700000       2.14110000       0.00550000
H       -0.16480000       1.09230000      -1.35120000
H        2.41850000       0.28980000      -0.80710000
H        4.22750000       1.05030000       0.39160000
H        3.21920000       2.04130000       1.43770000
H        4.54070000      -0.16440000       2.38560000
H        3.00560000       0.36540000       3.06510000
H        3.30530000      -1.82080000       0.94350000
H        2.92590000      -2.05070000       2.64370000
