16
Properties=species:S:1:pos:R:3 gdb_90466=T pbc="F F F"
C       -0.57710000       1.21680000      -0.00950000
C        0.29850000      -0.01500000       0.01240000
O        1.18770000      -0.02660000      -1.11420000
C        2.46270000      -0.34190000      -0.66590000
C        2.41900000      -0.34680000       0.81490000
O        1.11970000      -0.03420000       1.18930000
C        2.68150000      -1.67740000       0.07720000
C        1.72100000      -2.73600000       0.04530000
N        0.94000000      -3.58970000       0.01950000
H        0.04040000       2.11800000       0.01280000
H       -1.18710000       1.21940000      -0.91650000
H       -1.24130000       1.21260000       0.85860000
H       -0.29550000      -0.93630000      -0.00820000
H        3.25460000       0.05940000      -1.28540000
H        3.17290000       0.05020000       1.48260000
H        3.71660000      -2.00540000       0.10670000
