19
Properties=species:S:1:pos:R:3 gdb_68590=T pbc="F F F"
C       -0.14960000       1.57010000       0.07420000
C       -0.00950000       0.05910000       0.00990000
O       -1.29390000      -0.46320000      -0.21250000
C        1.12270000      -0.57280000      -0.85410000
C        2.12500000      -0.24730000       0.26660000
C        0.87630000      -0.59770000       1.14540000
O        0.69390000      -0.20390000       2.46240000
C        0.71160000      -2.08010000       0.77200000
O        0.85820000      -1.98960000      -0.66930000
H        0.78560000       2.08450000       0.29590000
H       -0.54440000       1.94440000      -0.87450000
H       -0.86680000       1.82090000       0.86080000
H       -1.16730000      -1.32030000      -0.64100000
H        1.27910000      -0.36510000      -1.91070000
H        2.99460000      -0.90400000       0.33760000
H        2.42090000       0.79830000       0.31740000
H        1.31560000      -0.68050000       3.02370000
H        1.49000000      -2.72880000       1.19200000
H       -0.27490000      -2.47460000       1.03510000
