17
Properties=species:S:1:pos:R:3 gdb_125550=T pbc="F F F"
C       -0.15800000       1.42150000      -0.06600000
C       -0.01080000      -0.06350000       0.03930000
N       -0.11600000      -0.82440000      -1.05280000
N        0.02330000      -2.08550000      -0.56760000
C        0.24730000      -3.36920000      -1.18920000
C        0.24030000      -4.25210000       0.09090000
O        0.50050000      -3.36410000       1.21180000
C        0.25730000      -2.11530000       0.75750000
C        0.23090000      -0.82470000       1.22520000
H        0.72030000       1.93910000       0.33530000
H       -0.28160000       1.70730000      -1.11270000
H       -1.02900000       1.78000000       0.49440000
H       -0.55010000      -3.64360000      -1.88390000
H        1.20620000      -3.39760000      -1.72120000
H       -0.74050000      -4.71440000       0.24290000
H        1.00940000      -5.02530000       0.08960000
H        0.35500000      -0.47150000       2.23420000
