21
Properties=species:S:1:pos:R:3 gdb_82190=T pbc="F F F"
C       -0.17550000       1.46100000       0.00210000
C        0.00600000      -0.03870000       0.00330000
C       -0.77180000      -0.87010000       0.99620000
C        0.73540000      -0.79710000       1.09140000
C        1.57630000      -1.89210000       0.44970000
C        0.89050000      -3.04070000      -0.24650000
C        1.34490000      -1.84060000      -1.04360000
C        0.37370000      -0.69230000      -1.34650000
O       -0.73540000      -1.02730000      -2.16800000
H        0.72500000       1.97270000      -0.35830000
H       -1.00650000       1.75060000      -0.65150000
H       -0.39410000       1.83740000       1.00660000
H       -1.34000000      -0.31790000       1.73850000
H       -1.25500000      -1.79510000       0.70240000
H        1.16660000      -0.27950000       1.94180000
H        2.56410000      -2.05920000       0.86370000
H        1.46630000      -3.94970000      -0.38650000
H       -0.16240000      -3.23170000      -0.07260000
H        2.15310000      -1.99580000      -1.74960000
H        0.91700000       0.05590000      -1.93490000
H       -1.23170000      -1.71990000      -1.71970000
