17
Properties=species:S:1:pos:R:3 gdb_77612=T pbc="F F F"
C       -0.00110000       1.61660000      -0.01900000
C        0.03750000       0.12010000       0.00140000
C        0.66740000      -0.78570000      -1.05060000
O        1.12850000      -1.73080000      -0.04350000
C        0.64270000      -0.88100000       1.00040000
C        1.33630000      -0.74160000       2.22790000
C        1.88510000      -0.63320000       3.29450000
C       -0.86360000      -0.73610000       0.86410000
O       -1.52450000      -0.03550000       1.86590000
H        0.99310000       2.03810000      -0.19900000
H       -0.66870000       1.97420000      -0.81220000
H       -0.37800000       1.99850000       0.93160000
H       -0.00110000      -1.25530000      -1.78140000
H        1.51990000      -0.32710000      -1.56500000
H        2.39010000      -0.52770000       4.22290000
H       -1.40510000      -1.57880000       0.42710000
H       -1.33570000      -0.46420000       2.70910000
