17
Properties=species:S:1:pos:R:3 gdb_34228=T pbc="F F F"
C        0.01070000      -1.22020000       0.02750000
C       -0.03630000      -0.01700000       0.02650000
C       -0.08460000       1.41120000       0.02290000
C       -1.08630000       2.27880000       0.81180000
C       -0.54990000       3.39150000      -0.11120000
O        0.79770000       3.54880000       0.36420000
C        1.28160000       2.26150000      -0.02450000
C        1.17220000       2.30860000      -1.56280000
C       -0.32980000       2.32190000      -1.25930000
H        0.04670000      -2.28120000       0.03000000
H       -2.11180000       1.98350000       0.57660000
H       -0.94930000       2.41470000       1.88680000
H       -1.03470000       4.35490000      -0.25360000
H        2.17770000       1.98310000       0.52620000
H        1.63520000       3.16360000      -2.06030000
H        1.46530000       1.36760000      -2.03400000
H       -1.12550000       2.13450000      -1.97680000
