18
Properties=species:S:1:pos:R:3 gdb_90009=T pbc="F F F"
C       -0.59570000       1.36360000       0.21000000
C       -0.06820000      -0.04720000       0.04210000
C        0.64770000      -0.36920000      -1.29090000
C        1.92090000      -0.38010000      -0.43160000
C        3.04690000      -1.45250000      -0.49920000
N        3.97240000      -0.35450000      -0.80300000
C        3.05100000       0.65910000      -0.70680000
O        3.11330000       1.85450000      -0.81730000
O        1.17760000      -0.25060000       0.77490000
H        0.16130000       2.09040000      -0.10050000
H       -1.49840000       1.50830000      -0.39390000
H       -0.84960000       1.55300000       1.25750000
H       -0.81270000      -0.78760000       0.35710000
H        0.39180000      -1.33690000      -1.72580000
H        0.60270000       0.40650000      -2.05720000
H        3.22660000      -1.94430000       0.46150000
H        2.94840000      -2.19800000      -1.29510000
H        4.96150000      -0.34480000      -1.00120000
