19
Properties=species:S:1:pos:R:3 gdb_62092=T pbc="F F F"
C       -0.04970000       1.51160000       0.11940000
C        0.04440000      -0.02680000       0.00880000
N       -1.21490000      -0.74880000       0.11800000
C       -2.04780000      -0.46150000       1.26730000
C       -3.06350000      -1.57560000       1.47820000
O       -4.15140000      -1.41980000       1.96690000
C        0.61810000      -0.37020000      -1.37340000
N        1.96840000      -0.52760000      -1.43100000
O       -0.09820000      -0.43340000      -2.35530000
H        0.93840000       1.97130000       0.01540000
H       -0.69620000       1.90510000      -0.67090000
H       -0.45900000       1.81090000       1.08830000
H        0.72040000      -0.39370000       0.79460000
H       -1.71310000      -0.64610000      -0.76100000
H       -1.41270000      -0.46200000       2.16740000
H       -2.58390000       0.50010000       1.26040000
H       -2.69800000      -2.57230000       1.14310000
H        2.53010000      -0.60930000      -0.60200000
H        2.38070000      -0.76920000      -2.31800000
