17
Properties=species:S:1:pos:R:3 gdb_79320=T pbc="F F F"
C        0.07390000       1.62290000      -0.02040000
C        0.07170000       0.10270000      -0.01140000
C        0.78440000      -0.67430000      -1.13230000
C        2.21300000      -0.81610000      -0.66220000
O        2.36180000      -0.12660000       0.57030000
C        1.04680000      -0.64940000       0.94140000
C        1.17730000      -1.78720000      -0.12350000
C        1.03960000      -3.23360000      -0.17700000
O        0.68820000      -3.93270000       0.74580000
H        1.09620000       2.00440000      -0.07200000
H       -0.48550000       2.00910000      -0.87890000
H       -0.39570000       2.01800000       0.88690000
H       -0.93510000      -0.30530000       0.12000000
H        0.48560000      -0.81510000      -2.16370000
H        3.07940000      -0.97970000      -1.28930000
H        0.90250000      -0.74010000       2.01440000
H        1.29250000      -3.66730000      -1.17270000
