17
Properties=species:S:1:pos:R:3 gdb_54504=T pbc="F F F"
C        0.68180000       1.22450000       0.06440000
C       -0.32890000       0.11480000      -0.11960000
O       -1.20550000      -0.11690000       0.68880000
C       -0.20040000      -0.71630000      -1.35500000
C       -1.46600000      -1.35690000      -1.91450000
C       -0.43940000      -2.26460000      -1.33940000
N        0.55620000      -2.73350000      -2.26440000
C        1.26650000      -1.63110000      -2.70430000
N        0.89430000      -0.48550000      -2.25830000
H        1.69590000       0.81260000       0.07910000
H        0.64800000       1.90870000      -0.78950000
H        0.47330000       1.75700000       0.99280000
H       -2.34620000      -1.18950000      -1.30530000
H       -1.59960000      -1.33390000      -2.99080000
H       -0.61930000      -2.83450000      -0.43630000
H        1.01850000      -3.61720000      -2.11790000
H        2.07430000      -1.76630000      -3.41600000
