21
Properties=species:S:1:pos:R:3 gdb_98296=T pbc="F F F"
C       -0.95360000       1.38430000       0.22590000
N       -1.19700000      -0.04030000       0.29660000
C       -0.49760000      -0.94270000      -0.43670000
O        0.38490000      -0.65690000      -1.22900000
C       -0.86330000      -2.41150000      -0.16260000
C        0.21080000      -3.03400000       0.73660000
N       -2.18140000      -2.52360000       0.46490000
C       -3.32520000      -2.66390000      -0.43590000
C       -2.84280000      -3.82080000       0.36540000
H       -0.60170000       1.78020000       1.18580000
H       -0.18250000       1.54740000      -0.52850000
H       -1.85910000       1.92980000      -0.06290000
H       -1.89160000      -0.41770000       0.92410000
H       -0.83630000      -2.91120000      -1.14470000
H        0.03470000      -4.10580000       0.86730000
H        1.19440000      -2.89190000       0.28380000
H        0.20310000      -2.56160000       1.72350000
H       -4.22500000      -2.12960000      -0.14570000
H       -3.12830000      -2.67930000      -1.50610000
H       -2.32340000      -4.61290000      -0.17080000
H       -3.38420000      -4.14740000       1.24830000
