18
Properties=species:S:1:pos:R:3 gdb_111033=T pbc="F F F"
O       -0.10970000       1.44490000      -0.16830000
C        0.05210000       0.05670000       0.09240000
C       -1.33040000      -0.55820000       0.00230000
C       -2.04400000      -0.81330000      -1.36570000
C       -1.09940000      -2.02870000      -1.59980000
C       -1.53490000      -2.10990000      -0.10000000
C       -2.98200000      -1.79170000      -0.59830000
C       -1.14410000      -3.10190000       0.87110000
N       -0.82180000      -3.89060000       1.65340000
H        0.73750000       1.87810000      -0.02890000
H        0.75750000      -0.39880000      -0.61610000
H        0.45030000      -0.11870000       1.10430000
H       -1.97480000      -0.08360000       0.74890000
H       -2.33860000      -0.06080000      -2.09380000
H       -1.48270000      -2.82450000      -2.24200000
H       -0.04740000      -1.83380000      -1.80410000
H       -3.65900000      -1.35680000       0.14010000
H       -3.46420000      -2.57590000      -1.18530000
