21
Properties=species:S:1:pos:R:3 gdb_94700=T pbc="F F F"
C       -0.58350000       1.48710000       0.14810000
C        0.19410000       0.19550000      -0.06220000
O        1.17660000       0.47240000      -1.06550000
C        2.29040000      -0.40570000      -1.08550000
C        2.69650000      -0.85550000       0.33000000
O        3.96050000      -1.46150000       0.35620000
C        1.54930000      -1.69440000       0.91950000
C        0.87370000      -0.32810000       1.21650000
C        2.30420000       0.27670000       1.32570000
H        0.05530000       2.25700000       0.59180000
H       -0.95610000       1.86230000      -0.80880000
H       -1.43730000       1.31660000       0.81110000
H       -0.49490000      -0.58340000      -0.43290000
H        2.09670000      -1.29340000      -1.70920000
H        3.10950000       0.15930000      -1.55100000
H        4.60180000      -0.85030000      -0.02380000
H        1.03480000      -2.39690000       0.25610000
H        1.86510000      -2.20600000       1.83200000
H        0.20600000      -0.26210000       2.07730000
H        2.74460000       0.09720000       2.30890000
H        2.45650000       1.31420000       1.01910000
