19
Properties=species:S:1:pos:R:3 gdb_54860=T pbc="F F F"
C       -0.10570000       1.55640000      -0.09270000
C        0.11000000       0.06510000       0.10640000
O        1.21000000      -0.39830000       0.28650000
C       -1.16700000      -0.79520000       0.06530000
C       -1.61180000      -1.08440000      -1.36700000
C       -1.84620000      -2.38440000      -1.56090000
C       -1.55130000      -3.19430000      -0.34710000
C       -0.09810000      -3.18100000       0.08810000
C       -1.05750000      -2.18720000       0.68390000
H        0.85400000       2.05840000      -0.22080000
H       -0.75280000       1.75480000      -0.95350000
H       -0.61450000       1.97020000       0.78640000
H       -1.94990000      -0.20980000       0.57160000
H       -1.69400000      -0.30930000      -2.12030000
H       -2.17990000      -2.82120000      -2.49560000
H       -2.17870000      -4.03830000      -0.08380000
H        0.23170000      -3.97930000       0.74490000
H        0.64590000      -2.83620000      -0.61770000
H       -1.31120000      -2.29700000       1.73110000
