20
Properties=species:S:1:pos:R:3 gdb_59705=T pbc="F F F"
C       -0.26020000       1.39840000      -0.79810000
N       -0.12450000       0.00970000      -0.37420000
C        0.62620000      -0.07910000       0.87720000
C       -1.41300000      -0.63770000      -0.25990000
C       -2.26750000      -0.76460000      -1.53810000
O       -2.41880000      -2.18780000      -1.34290000
C       -1.44390000      -2.19770000      -0.28460000
C       -0.15270000      -2.86570000      -0.73210000
O        0.69660000      -3.25930000       0.02530000
H        0.73390000       1.83700000      -0.92380000
H       -0.77750000       1.45700000      -1.75990000
H       -0.81600000       2.01820000      -0.06920000
H        0.12400000       0.45280000       1.70710000
H        0.76130000      -1.12410000       1.16320000
H        1.61540000       0.36650000       0.73820000
H       -2.00650000      -0.24830000       0.58710000
H       -3.23160000      -0.24690000      -1.54780000
H       -1.71640000      -0.53980000      -2.45970000
H       -1.81190000      -2.68930000       0.62240000
H       -0.06890000      -2.98230000      -1.83480000
