14
Properties=species:S:1:pos:R:3 gdb_49376=T pbc="F F F"
N        0.05850000       1.27320000       0.00110000
C       -0.01880000       0.01170000      -0.06050000
N       -1.23910000      -0.65570000      -0.03230000
C       -1.50620000      -2.10360000      -0.02560000
C       -3.03180000      -1.76760000      -0.00550000
C       -2.59980000      -0.28740000       0.02000000
O       -3.15120000       0.76590000       0.07190000
C       -1.01300000      -2.82890000      -1.19610000
N       -0.61060000      -3.40680000      -2.11200000
H        1.03230000       1.56910000      -0.04240000
H        0.81790000      -0.69270000      -0.14620000
H       -1.15160000      -2.60370000       0.88130000
H       -3.57660000      -2.05920000      -0.90370000
H       -3.56420000      -2.10600000       0.88380000
