17
Properties=species:S:1:pos:R:3 gdb_65005=T pbc="F F F"
C       -0.12560000       1.50920000      -0.39390000
C       -0.01540000       0.03120000      -0.09410000
C        0.90220000      -0.82030000      -0.89080000
N        1.20030000      -0.50790000       0.52090000
C       -1.28970000      -0.63330000       0.47240000
C       -1.75570000       0.00610000       1.70470000
C       -2.11660000       0.53580000       2.71920000
C       -2.35350000      -0.65740000      -0.54730000
N       -3.16550000      -0.67560000      -1.36840000
H        0.80920000       1.88330000      -0.82160000
H       -0.92800000       1.70570000      -1.11220000
H       -0.34270000       2.07480000       0.51750000
H        0.66160000      -1.86160000      -1.08780000
H        1.48190000      -0.33680000      -1.67220000
H        1.91170000       0.21570000       0.58560000
H       -1.02560000      -1.67380000       0.69810000
H       -2.44390000       0.99680000       3.61870000
