20
Properties=species:S:1:pos:R:3 gdb_110599=T pbc="F F F"
C        0.12470000       1.57730000       0.15980000
C        0.06660000       0.08280000       0.10350000
C       -0.85440000      -0.76250000       0.94970000
C        0.63050000      -0.99530000       1.00270000
C        1.17550000      -1.66220000      -0.26520000
C        0.24600000      -1.93430000      -1.38930000
C       -1.17810000      -2.49280000      -1.48200000
O       -1.36440000      -3.18180000      -2.70980000
N        0.67760000      -0.53550000      -1.15320000
H        1.12400000       1.93660000      -0.10440000
H       -0.58610000       2.01920000      -0.54910000
H       -0.12500000       1.94130000       1.16110000
H       -1.23090000      -0.21440000       1.80970000
H       -1.55410000      -1.49960000       0.58340000
H        1.21560000      -0.90390000       1.90840000
H        2.21510000      -1.97380000      -0.32260000
H        0.80190000      -2.30510000      -2.25260000
H       -1.36260000      -3.23700000      -0.70130000
H       -1.91940000      -1.69150000      -1.37140000
H       -1.33790000      -2.53060000      -3.41840000
