18
Properties=species:S:1:pos:R:3 gdb_78838=T pbc="F F F"
C       -0.14580000       1.53160000       0.11580000
C        0.03800000       0.05120000      -0.16470000
C        0.96120000      -0.47850000      -1.25170000
C        2.35720000      -0.61430000      -0.60340000
C        1.28480000      -1.64170000      -0.37220000
N        0.81040000      -0.80720000       0.84210000
C        2.19340000      -0.16120000       0.84100000
C        3.09100000      -0.92400000       1.78710000
O        3.92200000      -0.40850000       2.48900000
H        0.78700000       2.09680000       0.05330000
H       -0.84020000       1.96030000      -0.61430000
H       -0.57510000       1.67760000       1.11280000
H       -0.94250000      -0.42910000      -0.24980000
H        0.85650000      -0.46400000      -2.32990000
H        3.25430000      -0.69350000      -1.20480000
H        1.21300000      -2.71450000      -0.47150000
H        2.23100000       0.89970000       1.09630000
H        2.93270000      -2.02530000       1.78090000
