15
Properties=species:S:1:pos:R:3 gdb_69039=T pbc="F F F"
C       -0.01440000       1.49030000       0.25870000
C        0.00410000       0.00770000       0.04230000
C       -0.93760000      -0.97530000       0.72270000
C        0.53050000      -1.14640000       0.91970000
O        1.09670000      -1.81450000      -0.23530000
C        0.72920000      -0.74540000      -1.05250000
O        1.01010000      -0.57890000      -2.19160000
C        1.29880000      -1.02850000       2.16760000
O        0.85320000      -0.50290000       3.16050000
H        0.93870000       1.94420000      -0.02580000
H       -0.80470000       1.95760000      -0.33720000
H       -0.20350000       1.71480000       1.31240000
H       -1.47480000      -0.55660000       1.56810000
H       -1.46180000      -1.73350000       0.15030000
H        2.32930000      -1.43500000       2.11340000
