15
Properties=species:S:1:pos:R:3 gdb_4507=T pbc="F F F"
C        0.02080000       1.41610000       0.06780000
C        0.02320000      -0.06470000      -0.05100000
N       -0.01460000      -0.78370000      -1.13400000
C        0.00900000      -2.08660000      -0.67800000
O       -0.01860000      -3.13420000      -1.52990000
C        0.06080000      -2.11970000       0.67700000
C        0.10470000      -3.18780000       1.70190000
O        0.07000000      -0.79360000       1.08320000
H        0.92210000       1.77290000       0.57730000
H       -0.01960000       1.85310000      -0.93030000
H       -0.84220000       1.76450000       0.64500000
H       -0.05390000      -2.76310000      -2.41930000
H        1.01280000      -3.13440000       2.31430000
H       -0.75470000      -3.14240000       2.38160000
H        0.09000000      -4.15890000       1.20130000
