20
Properties=species:S:1:pos:R:3 gdb_62621=T pbc="F F F"
C       -0.04190000       1.59070000      -0.08180000
C        0.01010000       0.07210000       0.03820000
C       -1.34480000      -0.54580000      -0.29790000
N        1.07260000      -0.60290000      -0.80330000
C        2.32280000      -0.60430000       0.04300000
C        2.05090000       0.05460000       1.39590000
C        0.64630000      -0.58820000       1.28440000
O       -0.16160000      -0.79920000       2.38400000
C        1.27860000      -1.63190000       0.24550000
H        0.94770000       2.04760000      -0.02250000
H       -0.47770000       1.87450000      -1.04500000
H       -0.66830000       2.01630000       0.70960000
H       -1.62340000      -0.30520000      -1.32830000
H       -1.32680000      -1.63370000      -0.19290000
H       -2.11560000      -0.15530000       0.37290000
H        3.26120000      -0.67740000      -0.49000000
H        2.64570000      -0.43750000       2.17360000
H        2.12420000       1.13940000       1.51270000
H        0.38000000      -1.10360000       3.11960000
H        1.23770000      -2.70100000       0.08320000
