19
Properties=species:S:1:pos:R:3 gdb_86886=T pbc="F F F"
C       -0.22960000       1.53810000      -0.01040000
C        0.10030000       0.05480000       0.08000000
N        0.95760000      -0.38670000      -1.03210000
C        1.43490000      -1.72020000      -0.68140000
C        1.77400000      -1.57220000       0.82560000
C        0.91540000      -0.37320000       1.32280000
O        1.71750000       0.71410000       1.75660000
C        0.42540000      -2.78120000      -0.91150000
N       -0.38380000      -3.58110000      -1.12000000
H        0.68410000       2.13350000      -0.01890000
H       -0.79820000       1.74670000      -0.92280000
H       -0.84020000       1.84880000       0.84230000
H       -0.84070000      -0.52270000       0.10600000
H        0.47520000      -0.36990000      -1.92430000
H        2.31960000      -1.98050000      -1.27110000
H        1.59160000      -2.49540000       1.37790000
H        2.82770000      -1.30460000       0.92810000
H        0.23270000      -0.67960000       2.12550000
H        2.15320000       0.45590000       2.57430000
