20
Properties=species:S:1:pos:R:3 gdb_60242=T pbc="F F F"
C        0.08170000       1.56290000       0.02730000
C        0.02240000       0.03620000      -0.01130000
O        0.70230000      -0.53200000       1.11160000
C       -1.41350000      -0.48910000       0.05690000
C       -1.47910000      -2.00770000      -0.09200000
C       -2.86340000      -2.68800000      -0.17340000
O       -2.54660000      -3.19160000      -1.51050000
C       -1.31590000      -2.56900000      -1.49280000
N       -0.42470000      -2.50280000      -2.37440000
H        1.12060000       1.90970000       0.00380000
H       -0.43430000       2.00020000      -0.83390000
H       -0.38130000       1.94220000       0.94420000
H        0.47440000      -0.32590000      -0.94570000
H        1.64550000      -0.38630000       0.99230000
H       -1.84310000      -0.20070000       1.02470000
H       -2.01200000      -0.00820000      -0.72520000
H       -0.80080000      -2.47300000       0.62580000
H       -3.05140000      -3.51080000       0.52020000
H       -3.72480000      -2.01490000      -0.20840000
H       -0.69890000      -3.00710000      -3.21960000
