27
Properties=species:S:1:pos:R:3 gdb_96326=T pbc="F F F"
C        0.05380000       1.61360000       0.01620000
C       -0.01400000       0.07840000      -0.00570000
C        0.64830000      -0.46640000      -1.28940000
C        0.14290000      -1.82930000      -1.80000000
C       -0.17330000      -2.89240000      -0.73120000
C        0.78580000      -2.95190000       0.47010000
C        0.43780000      -1.96790000       1.60480000
C        1.21550000      -2.32220000       2.88120000
C        0.65230000      -0.48190000       1.26740000
H        1.09490000       1.95890000       0.00030000
H       -0.45100000       2.04580000      -0.85410000
H       -0.41650000       2.02320000       0.91640000
H       -1.07630000      -0.20640000      -0.00340000
H        0.51850000       0.26110000      -2.09990000
H        1.73130000      -0.51520000      -1.11490000
H       -0.76180000      -1.67490000      -2.40140000
H        0.89360000      -2.22780000      -2.49400000
H       -1.18910000      -2.73450000      -0.34660000
H       -0.19870000      -3.87000000      -1.22660000
H        0.75340000      -3.96450000       0.89070000
H        1.82430000      -2.79880000       0.14360000
H       -0.63300000      -2.10500000       1.82090000
H        2.29660000      -2.23610000       2.71810000
H        0.95280000      -1.65420000       3.70830000
H        1.00970000      -3.34920000       3.20080000
H        1.73350000      -0.28700000       1.19560000
H        0.30400000       0.10280000       2.12920000
