19
Properties=species:S:1:pos:R:3 gdb_114398=T pbc="F F F"
C        0.22600000       1.29300000       0.34400000
C        0.07920000      -0.19670000       0.01810000
C        0.67980000      -0.56900000      -1.33220000
C        2.23340000      -0.50790000      -1.52420000
C        2.22350000      -1.98420000      -2.04530000
C        0.70770000      -2.06020000      -1.74090000
O        0.98270000      -2.96180000      -0.61840000
C        2.33470000      -2.98230000      -0.90020000
O        3.17820000      -3.60360000      -0.33970000
H        1.27860000       1.59550000       0.36940000
H       -0.27900000       1.91620000      -0.40260000
H       -0.20770000       1.52610000       1.32090000
H        0.55260000      -0.80060000       0.79970000
H       -0.98340000      -0.47250000       0.02220000
H        0.18770000       0.00210000      -2.12830000
H        2.56410000       0.21210000      -2.27380000
H        2.82080000      -0.35550000      -0.61560000
H        2.70600000      -2.22220000      -2.99010000
H       -0.05930000      -2.47900000      -2.39090000
