18
Properties=species:S:1:pos:R:3 gdb_111745=T pbc="F F F"
O        0.14730000       0.78490000       0.92960000
C       -0.08810000       0.23560000      -0.35710000
C       -1.39090000      -0.52540000      -0.25590000
N       -1.94750000      -1.40540000      -1.27740000
C       -0.81540000      -2.21360000      -1.87720000
C       -0.39970000      -2.81620000      -0.51460000
C       -1.50060000      -1.96630000       0.10620000
C       -2.50790000      -2.45760000       1.06430000
O       -2.39870000      -3.48730000       1.68560000
H        0.93540000       1.33420000       0.88360000
H       -0.20270000       1.02280000      -1.11960000
H        0.74040000      -0.41130000      -0.67240000
H       -2.17490000       0.09810000       0.17170000
H       -1.23940000      -2.94400000      -2.56730000
H       -0.07870000      -1.60970000      -2.41460000
H       -0.61540000      -3.88130000      -0.42830000
H        0.61670000      -2.63390000      -0.15700000
H       -3.40020000      -1.80030000       1.16580000
