20
Properties=species:S:1:pos:R:3 gdb_68903=T pbc="F F F"
C       -0.12840000       1.51420000       0.03910000
C        0.01940000       0.01290000      -0.01820000
C        1.37540000      -0.61740000      -0.31630000
C        0.72930000      -0.80800000       1.03110000
C        1.31400000      -0.32870000       2.32720000
O        0.04500000      -2.05030000       1.18000000
C       -1.00240000      -2.14140000       0.30170000
N       -1.70990000      -3.17350000       0.13840000
C       -1.18200000      -0.82240000      -0.42940000
H        0.76910000       1.99390000       0.44040000
H       -0.29950000       1.92750000      -0.96140000
H       -0.97640000       1.80690000       0.66870000
H        1.42870000      -1.47400000      -0.98140000
H        2.22590000       0.05450000      -0.37400000
H        1.81380000       0.63370000       2.19200000
H        0.53480000      -0.21230000       3.08720000
H        2.05320000      -1.04290000       2.70370000
H       -1.38720000      -3.92740000       0.74750000
H       -2.11660000      -0.35320000      -0.10150000
H       -1.26750000      -0.99190000      -1.50610000
