12
Properties=species:S:1:pos:R:3 gdb_9971=T pbc="F F F"
C        0.04210000      -1.19730000       0.03070000
C       -0.01100000       0.00050000      -0.00840000
C       -0.03420000       1.46210000      -0.03990000
C        1.42160000       2.02970000      -0.03930000
C        1.45660000       3.48120000       0.11100000
N        1.47640000       4.62760000       0.24860000
C       -0.79130000       1.95500000      -1.20210000
N       -1.37690000       2.34510000      -2.11720000
H        0.07210000      -2.25930000       0.06180000
H       -0.53980000       1.83460000       0.86020000
H        1.96480000       1.56730000       0.78970000
H        1.92480000       1.74000000      -0.96590000
