20
Properties=species:S:1:pos:R:3 gdb_63539=T pbc="F F F"
C       -0.09480000       1.52570000       0.00610000
C       -0.09740000       0.01600000       0.09240000
C       -1.21110000      -0.68440000      -0.65210000
O        1.21390000      -0.59640000      -0.05890000
C        0.57900000      -0.65430000       1.20560000
C        1.27190000      -0.12070000       2.48570000
C        0.93390000      -1.46650000       3.14730000
N       -0.54070000      -1.59940000       3.08960000
C        0.28540000      -1.97200000       1.90470000
H        0.75460000       1.94840000       0.54680000
H       -0.03100000       1.84940000      -1.03880000
H       -1.01780000       1.93670000       0.42910000
H       -1.17840000      -0.43180000      -1.71770000
H       -1.12770000      -1.76880000      -0.55490000
H       -2.18670000      -0.37510000      -0.26210000
H        2.34200000       0.01220000       2.30870000
H        0.85090000       0.76690000       2.96400000
H        1.51490000      -2.00100000       3.88770000
H       -0.78190000      -2.47200000       3.56060000
H        0.25430000      -2.96590000       1.47680000
