19
Properties=species:S:1:pos:R:3 gdb_96759=T pbc="F F F"
C        0.08830000       1.35770000      -0.01550000
N       -0.03240000      -0.08870000       0.09320000
C       -1.12110000      -0.67130000      -0.15060000
N       -2.47200000      -0.29530000      -0.45680000
C       -3.12540000       0.80110000       0.24300000
C       -2.92430000      -1.68340000      -0.12870000
C       -2.32530000      -2.60730000      -1.14800000
C       -1.45770000      -2.12870000      -0.01270000
O       -0.76070000      -3.01070000       0.77300000
H        1.12940000       1.60500000      -0.24300000
H       -0.54380000       1.79280000      -0.80020000
H       -0.15740000       1.84720000       0.93540000
H       -2.68730000       1.75460000      -0.05610000
H       -4.18250000       0.81600000      -0.03900000
H       -3.06270000       0.71990000       1.34090000
H       -3.80180000      -1.86090000       0.47780000
H       -2.59960000      -3.65290000      -1.03400000
H       -2.17530000      -2.26880000      -2.17000000
H       -0.26120000      -2.48260000       1.40850000
