20
Properties=species:S:1:pos:R:3 gdb_63929=T pbc="F F F"
C       -0.88420000       1.43250000      -0.00680000
C       -0.18500000       0.08240000      -0.01770000
O       -1.11650000      -0.97670000      -0.16580000
C        1.07390000      -0.05800000      -0.92510000
N        1.85580000      -0.62860000       0.19980000
C        3.07140000       0.10220000       0.58810000
C        2.62050000       1.03370000       1.69290000
C        1.34320000       0.82150000       2.00870000
C        0.76560000      -0.27990000       1.16500000
H       -0.18210000       2.24350000       0.20350000
H       -1.34500000       1.63300000      -0.98270000
H       -1.67510000       1.44690000       0.74980000
H       -1.63060000      -0.81210000      -0.96380000
H        0.95550000      -0.74350000      -1.77160000
H        1.46130000       0.90290000      -1.29300000
H        3.85800000      -0.58150000       0.94140000
H        3.49180000       0.63580000      -0.27640000
H        3.28330000       1.74390000       2.17460000
H        0.78880000       1.32770000       2.79020000
H        0.38340000      -1.12150000       1.75640000
