17
Properties=species:S:1:pos:R:3 gdb_38828=T pbc="F F F"
C       -0.05150000       1.47040000       0.13920000
N        1.23380000       0.78670000      -0.11120000
C        1.63350000       0.20880000       1.22250000
C        0.36900000      -0.67680000       1.28530000
O        0.68370000      -2.05830000       1.10160000
C        0.31430000      -2.66110000      -0.06180000
N       -0.28020000      -2.20720000      -1.07820000
C       -0.67940000      -0.80370000      -1.10620000
C       -0.07570000       0.00610000      -0.00170000
H       -0.22730000       1.93680000       1.10780000
H       -0.39120000       2.05690000      -0.70990000
H        2.54170000      -0.38810000       1.12850000
H        1.75860000       0.95740000       2.01140000
H       -0.28380000      -0.60920000       2.16140000
H        0.61890000      -3.70520000      -0.02330000
H       -0.40280000      -0.37920000      -2.07820000
H       -1.77670000      -0.76360000      -1.05120000
