15
Properties=species:S:1:pos:R:3 gdb_5203=T pbc="F F F"
O       -0.33690000       0.38010000       0.76460000
C       -0.00680000       1.09480000      -0.14190000
C        1.31950000       1.85850000      -0.16600000
N        1.36160000       2.88410000      -1.17750000
C        1.82820000       2.72440000      -2.46190000
C        1.58660000       3.88690000      -3.15560000
C        0.94000000       4.78500000      -2.26280000
C        0.80930000       4.13910000      -1.05590000
H       -0.63970000       1.25150000      -1.04410000
H        1.49480000       2.28590000       0.82620000
H        2.12270000       1.13520000      -0.34780000
H        2.29900000       1.80110000      -2.76140000
H        1.85540000       4.07590000      -4.18340000
H        0.61800000       5.79230000      -2.47730000
H        0.38400000       4.46080000      -0.11820000
