16
Properties=species:S:1:pos:R:3 gdb_125417=T pbc="F F F"
C       -0.04120000       1.47510000       0.04510000
C        0.01640000      -0.02560000      -0.03630000
N       -0.08260000      -0.62470000      -1.19020000
C       -0.06230000      -2.00800000      -1.19990000
N       -0.11780000      -2.74910000      -2.24690000
C        0.04450000      -2.69470000       0.11570000
N       -0.00170000      -4.04530000       0.08270000
N        0.16490000      -2.06050000       1.24530000
N        0.14970000      -0.69330000       1.12520000
H        0.54890000       1.86250000       0.88110000
H        0.33520000       1.89590000      -0.88750000
H       -1.07620000       1.81000000       0.17450000
H       -0.17900000      -2.15790000      -3.07720000
H        0.07850000      -4.45230000      -0.83730000
H        0.25570000      -4.56980000       0.90100000
H        0.23000000      -0.20850000       2.00340000
