13
Properties=species:S:1:pos:R:3 gdb_56954=T pbc="F F F"
O       -0.28000000       1.30830000      -0.08840000
C       -0.04460000      -0.07010000      -0.08760000
C        0.82720000      -0.48750000      -1.21320000
N        1.51610000      -0.81420000      -2.08080000
C        0.58130000      -0.55700000       1.22230000
O        1.41640000       0.39210000       1.87360000
C        0.20680000      -0.00530000       2.53900000
C       -0.82180000       0.99140000       2.74090000
N       -1.65470000       1.75000000       2.99690000
H        0.51700000       1.74010000       0.24980000
H       -1.01590000      -0.56120000      -0.22090000
H        0.96660000      -1.57590000       1.20020000
H        0.36790000      -0.63740000       3.41060000
