21
Properties=species:S:1:pos:R:3 gdb_80572=T pbc="F F F"
C        0.24880000       1.50540000      -0.02070000
C        0.12700000      -0.00480000      -0.10350000
C        0.82350000      -0.67390000      -1.30900000
C        1.29360000      -2.00850000      -0.74410000
C        2.51950000      -1.95530000       0.16680000
O        3.31200000      -0.81400000       0.22480000
C        1.13520000      -1.91780000       0.75900000
C        0.55990000      -2.97080000       1.66250000
O        0.74780000      -0.58870000       1.06460000
H        1.30020000       1.81010000      -0.04050000
H       -0.25870000       1.97190000      -0.87080000
H       -0.20540000       1.88290000       0.89960000
H       -0.93660000      -0.29030000      -0.09610000
H        0.13710000      -0.80410000      -2.14910000
H        1.67160000      -0.06910000      -1.64880000
H        1.08110000      -2.92870000      -1.27650000
H        3.09700000      -2.87090000       0.26640000
H        2.82450000      -0.18960000       0.78190000
H        0.93670000      -3.95960000       1.38370000
H        0.83730000      -2.78400000       2.70530000
H       -0.53360000      -2.99120000       1.59900000
