20
Properties=species:S:1:pos:R:3 gdb_121304=T pbc="F F F"
O        0.11450000       1.42830000       0.08220000
C        0.07670000       0.01020000       0.04380000
C       -1.35540000      -0.53280000       0.02130000
C       -1.43480000      -2.05270000       0.06450000
C       -2.85590000      -2.60710000       0.11940000
C       -2.80470000      -4.13520000       0.02110000
N       -1.92430000      -4.61380000      -1.04190000
C       -1.05650000      -3.81630000      -1.49630000
O       -0.76250000      -2.54740000      -1.11650000
H       -0.20960000       1.75450000      -0.76320000
H        0.64280000      -0.38810000      -0.80880000
H        0.58500000      -0.32380000       0.95570000
H       -1.89920000      -0.12660000       0.88180000
H       -1.87020000      -0.18090000      -0.88280000
H       -0.86960000      -2.42630000       0.93200000
H       -3.34660000      -2.28370000       1.04320000
H       -3.43020000      -2.19660000      -0.71990000
H       -2.46970000      -4.57110000       0.97210000
H       -3.80520000      -4.54220000      -0.16150000
H       -0.40700000      -4.11020000      -2.31940000
