21
Properties=species:S:1:pos:R:3 gdb_115835=T pbc="F F F"
O       -0.08440000       1.44450000      -0.08230000
C        0.00990000       0.03240000       0.04040000
C       -1.39490000      -0.54260000      -0.03390000
C       -2.12060000      -0.28650000      -1.37120000
C       -3.27270000      -1.30330000      -1.34830000
C       -2.65300000      -2.53600000      -0.69470000
C       -3.39490000      -3.77440000      -0.44220000
O       -2.46160000      -3.69300000      -1.52280000
C       -1.44060000      -2.07940000       0.12660000
H        0.80440000       1.81020000      -0.05570000
H        0.62230000      -0.39900000      -0.76960000
H        0.48200000      -0.25280000       0.99500000
H       -1.98390000      -0.07980000       0.76890000
H       -2.44700000       0.74900000      -1.48100000
H       -1.44130000      -0.50980000      -2.20450000
H       -4.09220000      -0.92540000      -0.72360000
H       -3.68380000      -1.54370000      -2.33160000
H       -3.10170000      -4.42450000       0.38230000
H       -4.44330000      -3.84850000      -0.73300000
H       -0.54620000      -2.54480000      -0.30470000
H       -1.49650000      -2.39230000       1.17310000
