14
Properties=species:S:1:pos:R:3 gdb_32506=T pbc="F F F"
C       -0.04330000       1.33120000       0.06260000
O        0.00090000      -0.08760000       0.00500000
C        0.61470000      -0.60110000      -1.07050000
C        1.21410000       0.00190000      -2.13600000
O        1.70500000      -0.95710000      -2.98820000
C        1.41830000      -2.15670000      -2.46560000
C        0.74560000      -2.02410000      -1.28210000
C        0.27680000      -3.06040000      -0.44130000
N       -0.10760000      -3.90740000       0.24810000
H        0.96970000       1.75320000       0.08480000
H       -0.58710000       1.74060000      -0.79830000
H       -0.56750000       1.58780000       0.98320000
H        1.37300000       1.02280000      -2.43040000
H        1.74010000      -3.02200000      -3.02060000
