19
Properties=species:S:1:pos:R:3 gdb_76648=T pbc="F F F"
O        0.05260000       1.27440000      -0.23130000
C       -0.05280000      -0.10570000      -0.06640000
C       -0.34940000      -0.61240000       1.32430000
O       -0.56790000       0.38580000       2.29420000
C       -1.40700000      -0.73060000       0.24990000
C       -2.66030000       0.09840000       0.28170000
C       -3.60790000       0.01460000      -0.93890000
O       -4.72720000      -0.33930000      -0.10170000
C       -3.88130000      -0.44540000       1.06150000
H       -0.09540000       1.66060000       0.64340000
H        0.63610000      -0.64700000      -0.70780000
H        0.11970000      -1.51910000       1.69990000
H        0.26190000       0.52660000       2.76350000
H       -1.54920000      -1.74340000      -0.12190000
H       -2.43090000       1.12960000       0.54690000
H       -3.78250000       0.94400000      -1.49260000
H       -3.36080000      -0.78350000      -1.65340000
H       -3.77840000      -1.48590000       1.40070000
H       -4.24520000       0.16530000       1.89550000
