15
Properties=species:S:1:pos:R:3 gdb_43197=T pbc="F F F"
O       -0.02520000       0.07040000      -0.65720000
C       -0.06580000       1.19390000      -0.25260000
C       -1.20440000       2.17780000       0.09430000
C       -1.47660000       2.35180000       1.60920000
O       -0.44030000       3.35340000       1.73880000
C       -0.12940000       3.28550000       0.33370000
C        0.98640000       2.27000000       0.03270000
C        2.32650000       2.14460000       0.61970000
O        2.14230000       2.49740000      -0.75010000
H       -2.04230000       2.23950000      -0.59740000
H       -2.46280000       2.77360000       1.83090000
H       -1.30430000       1.47730000       2.24610000
H       -0.08780000       4.25630000      -0.16230000
H        2.68330000       2.94050000       1.27070000
H        2.73560000       1.15150000       0.79500000
