19
Properties=species:S:1:pos:R:3 gdb_26477=T pbc="F F F"
C       -0.25080000       1.36670000      -0.72580000
C       -0.05320000       0.01470000      -0.07160000
C        1.07380000      -0.84350000      -0.55240000
N        1.14110000      -0.20710000       0.77430000
C       -1.27940000      -0.61980000       0.47550000
C       -2.59700000      -0.61570000       0.06350000
C       -3.33090000      -1.42710000       0.97380000
C       -2.44220000      -1.89770000       1.91360000
N       -1.20380000      -1.40570000       1.59620000
H        0.69490000       1.75280000      -1.12060000
H       -0.95610000       1.29690000      -1.56000000
H       -0.65360000       2.09070000      -0.01030000
H        0.97120000      -1.92460000      -0.53460000
H        1.70740000      -0.45770000      -1.34740000
H        1.74810000       0.60790000       0.74770000
H       -2.99050000      -0.09830000      -0.79810000
H       -4.38890000      -1.63810000       0.94140000
H       -2.58660000      -2.53010000       2.77470000
H       -0.34540000      -1.50530000       2.11400000
