20
Properties=species:S:1:pos:R:3 gdb_97135=T pbc="F F F"
C       -0.17100000       1.40060000       0.09170000
N       -0.17790000      -0.05230000       0.14460000
C        0.59930000      -0.64530000       0.93840000
O        1.45350000      -0.02010000       1.82560000
C        2.45690000      -0.93650000       2.28620000
C        1.96080000      -2.33980000       1.96280000
C        2.98180000      -3.42620000       1.73670000
C        0.59150000      -2.64180000       2.49640000
C        0.75040000      -2.11460000       1.07880000
H        0.74110000       1.85660000       0.49480000
H       -0.30300000       1.71860000      -0.94750000
H       -1.02480000       1.79560000       0.65680000
H        3.40040000      -0.72810000       1.76390000
H        2.60530000      -0.75920000       3.35680000
H        3.55070000      -3.63190000       2.65100000
H        2.50010000      -4.36030000       1.43300000
H        3.69560000      -3.14570000       0.95420000
H        0.31520000      -3.68640000       2.58890000
H        0.15000000      -1.98750000       3.24190000
H        0.49350000      -2.74040000       0.23510000
