21
Properties=species:S:1:pos:R:3 gdb_17279=T pbc="F F F"
C       -0.48440000       1.16750000       0.03370000
N        0.08340000      -0.16380000       0.17660000
C        1.47800000      -0.34570000      -0.20860000
C        1.07220000      -0.44460000       1.22300000
C        1.53780000       0.57040000       2.25070000
C        0.62240000       0.65450000       3.45730000
C        0.75520000      -0.34180000       4.58280000
C        1.15850000       1.09760000       4.79390000
H        0.22400000       1.99630000       0.19190000
H       -0.88490000       1.26600000      -0.98070000
H       -1.31610000       1.28850000       0.73590000
H        1.70670000      -1.23320000      -0.79390000
H        2.04360000       0.54180000      -0.49530000
H        0.94810000      -1.44350000       1.64110000
H        2.54230000       0.27740000       2.58550000
H        1.65140000       1.55960000       1.79340000
H       -0.39260000       0.96800000       3.22780000
H       -0.14560000      -0.70220000       5.06680000
H        1.54580000      -1.08250000       4.51350000
H        2.21860000       1.32020000       4.86390000
H        0.53320000       1.72160000       5.42280000
