17
Properties=species:S:1:pos:R:3 gdb_79873=T pbc="F F F"
O       -0.04750000       1.44720000      -0.09610000
C       -0.00370000       0.04420000      -0.03180000
C        0.00070000      -0.63900000       1.36520000
C       -1.48320000      -0.18680000       1.57790000
C       -2.18430000      -1.32740000       2.29890000
O       -1.60160000      -2.46970000       1.64050000
C       -0.69740000      -1.86920000       0.72650000
C       -1.36920000      -0.63330000       0.06100000
O       -2.33650000      -0.60640000      -0.91790000
H        0.85010000       1.78080000      -0.00480000
H        0.69010000      -0.37490000      -0.77340000
H        0.79300000      -0.64880000       2.11000000
H       -1.71340000       0.84540000       1.82500000
H       -1.97260000      -1.36780000       3.37450000
H       -3.27330000      -1.32660000       2.15820000
H       -0.15920000      -2.62570000       0.15730000
H       -2.96910000      -1.31070000      -0.73510000
