18
Properties=species:S:1:pos:R:3 gdb_57984=T pbc="F F F"
C       -0.21100000       1.28500000      -0.48650000
C       -0.03880000      -0.04250000       0.26430000
O        0.43580000       0.18610000       1.56680000
C       -1.34010000      -0.82810000       0.30950000
N       -1.88910000      -1.06650000       1.42460000
O       -1.74060000      -1.17240000      -0.94060000
C       -3.01490000      -1.80540000      -1.09160000
C       -3.04710000      -3.18590000      -0.61910000
C       -3.08370000      -4.32400000      -0.23680000
H        0.73960000       1.82380000      -0.47830000
H       -0.51550000       1.11720000      -1.52270000
H       -0.96100000       1.90590000       0.01310000
H        0.68400000      -0.66410000      -0.28850000
H       -0.24380000      -0.17420000       2.15880000
H       -2.73180000      -1.63310000       1.38380000
H       -3.78570000      -1.20910000      -0.58580000
H       -3.21570000      -1.76840000      -2.16560000
H       -3.11270000      -5.33060000       0.10220000
