16
Properties=species:S:1:pos:R:3 gdb_15323=T pbc="F F F"
C        0.10660000       1.51170000      -0.01940000
C        0.06260000       0.05710000      -0.02480000
C        0.01810000      -1.14670000      -0.02500000
C       -0.01990000      -2.57820000      -0.04230000
C       -0.39490000      -3.36210000       1.19550000
C       -1.35810000      -3.34030000       0.02810000
C       -2.60220000      -2.63860000       0.11660000
C       -3.65750000      -2.06510000       0.17820000
H        0.89580000       1.88810000       0.64120000
H        0.29690000       1.90830000      -1.02290000
H       -0.84390000       1.93260000       0.32670000
H        0.71370000      -3.04980000      -0.69030000
H        0.13610000      -4.28610000       1.39430000
H       -0.67470000      -2.78990000       2.07110000
H       -1.38710000      -4.24160000      -0.57740000
H       -4.58540000      -1.55290000       0.23470000
