20
Properties=species:S:1:pos:R:3 gdb_62042=T pbc="F F F"
C        0.08290000       1.49890000      -0.19610000
C       -0.01780000      -0.02390000       0.04420000
N        0.80630000      -0.56540000       1.12060000
C        2.24560000      -0.54730000       0.87980000
C        2.97430000      -1.18570000       2.03660000
C        4.37780000      -0.81600000       2.33230000
N        3.29600000      -0.39360000       3.24010000
C       -1.42310000      -0.39250000       0.29470000
N       -2.53200000      -0.64780000       0.49390000
H        1.11120000       1.77530000      -0.44210000
H       -0.56190000       1.80530000      -1.02440000
H       -0.22500000       2.04830000       0.69850000
H        0.28470000      -0.54110000      -0.87640000
H        0.58140000      -0.11440000       2.00180000
H        2.43590000      -1.12050000      -0.03810000
H        2.66460000       0.46320000       0.71350000
H        2.64110000      -2.19490000       2.26670000
H        5.05890000      -1.55570000       2.74230000
H        4.85160000      -0.06620000       1.70320000
H        3.08500000       0.58880000       3.07300000
