23
Properties=species:S:1:pos:R:3 gdb_93948=T pbc="F F F"
C       -0.13140000       1.52290000       0.13460000
C        0.08060000       0.01360000       0.04040000
C        0.80640000      -0.46470000      -1.22850000
C        1.18900000      -1.91400000      -0.89580000
C        1.56610000      -1.89630000       0.61360000
C        0.94400000      -0.58010000       1.17510000
C        1.08370000      -3.13200000       1.33300000
C        1.92500000      -4.32000000       1.52240000
O        1.67310000      -3.41990000       2.60380000
H        0.82740000       2.05410000       0.10530000
H       -0.74360000       1.89390000      -0.69460000
H       -0.63450000       1.79860000       1.06760000
H       -0.90330000      -0.47750000       0.06290000
H        0.19630000      -0.37750000      -2.13300000
H        1.70960000       0.14110000      -1.38470000
H        0.31960000      -2.56590000      -1.05230000
H        1.99450000      -2.30770000      -1.52140000
H        2.65420000      -1.86140000       0.72800000
H        1.74140000       0.12550000       1.43490000
H        0.37150000      -0.75310000       2.09150000
H        0.00080000      -3.28300000       1.31050000
H        1.46900000      -5.30490000       1.61570000
H        2.94650000      -4.31810000       1.14280000
