23
Properties=species:S:1:pos:R:3 gdb_107055=T pbc="F F F"
C       -0.01390000       1.52290000       0.26290000
C       -0.04120000       0.04900000      -0.15970000
C       -1.41100000      -0.56650000      -0.05150000
C       -1.95920000      -1.11420000       1.24610000
C       -1.72240000      -2.03100000       0.05140000
C       -2.90080000      -2.28390000      -0.88070000
C       -3.97530000      -3.24090000      -0.36330000
C       -3.42810000      -0.84930000      -1.12840000
O       -2.33800000       0.04330000      -0.92830000
H        0.99010000       1.94430000       0.15390000
H       -0.70140000       2.11050000      -0.35120000
H       -0.31780000       1.63700000       1.30870000
H        0.30180000      -0.04550000      -1.19760000
H        0.65110000      -0.53370000       0.45890000
H       -1.26830000      -1.20530000       2.07790000
H       -2.97510000      -0.87300000       1.54110000
H       -0.93700000      -2.77670000       0.11160000
H       -2.49540000      -2.67950000      -1.82090000
H       -4.36680000      -2.90440000       0.60270000
H       -4.81650000      -3.30910000      -1.06230000
H       -3.57480000      -4.25040000      -0.22820000
H       -3.80850000      -0.69700000      -2.14290000
H       -4.24640000      -0.62050000      -0.42840000
