20
Properties=species:S:1:pos:R:3 gdb_101060=T pbc="F F F"
C        0.18000000       1.50690000       0.20380000
C        0.20560000      -0.02250000       0.12650000
C        0.60880000      -0.55650000      -1.25550000
O        1.92940000      -0.15810000      -1.61070000
C        0.58750000      -2.08920000      -1.30590000
C        1.49410000      -2.79690000      -2.25900000
N        1.78000000      -2.82310000      -0.81770000
C       -0.69240000      -2.67720000      -0.99420000
C       -1.77700000      -3.14450000      -0.76750000
H        1.17390000       1.94600000       0.05280000
H       -0.49590000       1.93450000      -0.54570000
H       -0.16230000       1.84150000       1.18710000
H        0.89980000      -0.42670000       0.87300000
H       -0.78530000      -0.42020000       0.36730000
H       -0.11060000      -0.18610000      -2.00430000
H        1.97920000       0.80000000      -1.55520000
H        1.16960000      -3.74420000      -2.67800000
H        2.11590000      -2.17920000      -2.89770000
H        2.49730000      -2.12350000      -0.63080000
H       -2.72610000      -3.57160000      -0.55710000
