17
Properties=species:S:1:pos:R:3 gdb_128520=T pbc="F F F"
C        0.18240000       1.33450000       0.33350000
O       -0.05400000       0.12830000      -0.40620000
C       -1.21260000      -0.49680000      -0.12450000
C       -1.89420000      -0.82690000       1.03330000
N       -1.57550000      -0.50590000       2.36760000
N       -3.01660000      -1.50290000       0.67570000
N       -3.06580000      -1.62260000      -0.62520000
N       -1.96660000      -1.01810000      -1.12500000
C       -1.70360000      -1.00040000      -2.54700000
H        1.19280000       1.65290000       0.07430000
H       -0.53680000       2.10850000       0.04270000
H        0.10000000       1.15840000       1.40940000
H       -0.80970000      -1.07290000       2.71880000
H       -2.38540000      -0.69320000       2.95040000
H       -2.59120000      -1.39590000      -3.04040000
H       -1.51250000       0.02090000      -2.88540000
H       -0.83790000      -1.62190000      -2.79300000
