19
Properties=species:S:1:pos:R:3 gdb_115905=T pbc="F F F"
C       -0.01640000       1.39910000       0.05880000
O       -0.00690000      -0.01420000       0.14590000
C       -1.25670000      -0.59860000      -0.05280000
O       -1.77320000      -0.38070000      -1.35940000
C       -1.43950000      -1.37690000      -2.33360000
C       -1.31680000      -2.73930000      -1.66690000
C       -2.28020000      -2.84840000      -0.46390000
C       -1.12250000      -2.09730000       0.22200000
O       -0.19070000      -2.65000000      -0.74520000
H        1.00570000       1.73590000       0.24330000
H       -0.33980000       1.73870000      -0.93160000
H       -0.68130000       1.84200000       0.81650000
H       -2.00490000      -0.14100000       0.61610000
H       -2.24410000      -1.35670000      -3.07710000
H       -0.48940000      -1.13650000      -2.82880000
H       -1.22100000      -3.56260000      -2.37970000
H       -3.25560000      -2.36350000      -0.52760000
H       -2.36940000      -3.87380000      -0.10500000
H       -0.83860000      -2.30670000       1.25520000
