19
Properties=species:S:1:pos:R:3 gdb_110225=T pbc="F F F"
O        0.08010000       1.27780000      -0.36040000
C        0.04320000      -0.02930000       0.20000000
C       -1.32530000      -0.66090000       0.07760000
C       -1.89910000      -1.31380000      -1.16270000
O       -3.02120000      -0.87830000      -1.84280000
C       -0.85490000      -2.13350000      -1.91220000
C       -0.62380000      -2.99440000      -0.62270000
C       -1.67450000      -2.14710000       0.10160000
O       -2.61540000      -2.65520000       0.97950000
H       -0.23190000       1.20740000      -1.26880000
H        0.81080000      -0.67510000      -0.25140000
H        0.31470000       0.09770000       1.25410000
H       -2.10030000      -0.09910000       0.60240000
H       -3.59880000      -0.41600000      -1.22640000
H       -1.31080000      -2.71350000      -2.71680000
H        0.00740000      -1.59110000      -2.31240000
H       -0.96830000      -4.02230000      -0.75490000
H        0.38900000      -3.00970000      -0.20770000
H       -2.25960000      -2.61240000       1.87440000
