15
Properties=species:S:1:pos:R:3 gdb_80708=T pbc="F F F"
O        0.05410000       1.41820000       0.03730000
C       -0.08310000       0.04340000       0.01180000
C       -0.46450000      -0.80680000       1.18410000
O       -1.41420000      -0.10360000       1.99860000
C       -2.40380000      -0.13510000       0.95490000
C       -3.01790000       1.19830000       0.61070000
O       -2.58650000       2.26510000       0.97170000
C       -1.38480000      -0.74170000      -0.04170000
O       -1.71870000      -1.69610000      -0.97180000
H       -0.51350000       1.77200000       0.73960000
H        0.67590000      -0.41880000      -0.61670000
H        0.11160000      -1.59700000       1.65110000
H       -3.19530000      -0.86150000       1.18580000
H       -3.91900000       1.12580000      -0.03840000
H       -1.60190000      -1.32470000      -1.85330000
