14
Properties=species:S:1:pos:R:3 gdb_44897=T pbc="F F F"
O        0.03130000       0.04440000       0.03910000
C       -0.00120000       1.23930000       0.02130000
C       -1.20490000       2.21210000       0.04260000
C       -0.36760000       3.50080000       0.02080000
O        0.61940000       3.19550000      -1.01600000
C        1.15770000       2.25720000      -0.03890000
C        0.73800000       3.24830000       1.09580000
C        1.66000000       4.35190000       1.29360000
N        2.39020000       5.22790000       1.47970000
H       -1.81720000       2.11500000      -0.85650000
H       -1.83490000       2.06810000       0.92420000
H       -0.85300000       4.46740000      -0.09260000
H        2.17620000       1.91960000      -0.21000000
H        0.42790000       2.82550000       2.05580000
