14
Properties=species:S:1:pos:R:3 gdb_24834=T pbc="F F F"
N       -0.15020000       1.38390000       0.32930000
C       -0.04930000       0.15010000       0.04180000
N        1.18250000      -0.47310000      -0.19320000
C        1.46890000      -1.27380000      -1.13740000
N        0.65920000      -1.80910000      -2.11950000
C       -0.71460000      -1.93570000      -2.09710000
C       -1.57980000      -1.51530000      -1.15550000
C       -1.33120000      -0.67940000       0.02690000
O       -2.14320000      -0.58440000       0.92180000
H        0.78130000       1.80970000       0.32210000
H        2.50340000      -1.60590000      -1.23590000
H        1.13850000      -2.32910000      -2.83820000
H       -1.08790000      -2.50300000      -2.94350000
H       -2.61980000      -1.79450000      -1.28320000
