19
Properties=species:S:1:pos:R:3 gdb_33166=T pbc="F F F"
C       -0.00510000       1.58790000      -0.04480000
C        0.01180000       0.05810000      -0.07690000
C       -1.39520000      -0.53690000       0.06020000
N       -1.40980000      -1.99040000       0.01850000
C       -1.52060000      -2.81060000      -1.10320000
C       -1.42930000      -4.08860000      -0.63780000
N       -1.25730000      -4.10040000       0.73740000
C       -1.24900000      -2.83670000       1.06810000
O       -1.10210000      -2.33210000       2.30920000
H        1.00610000       1.99430000      -0.13590000
H       -0.60340000       1.99840000      -0.86590000
H       -0.43020000       1.96110000       0.89350000
H        0.45820000      -0.29750000      -1.01300000
H        0.63520000      -0.33050000       0.73620000
H       -1.84380000      -0.22470000       1.00800000
H       -2.04390000      -0.17240000      -0.74320000
H       -1.66080000      -2.39480000      -2.08700000
H       -1.48060000      -5.00770000      -1.20060000
H       -1.03050000      -3.09400000       2.89760000
