23
Properties=species:S:1:pos:R:3 gdb_101342=T pbc="F F F"
C       -0.16530000       1.54180000       0.49840000
C       -0.13500000       0.07060000       0.93140000
C       -1.40170000      -0.65240000       0.53940000
O       -1.58310000      -0.95690000      -0.85150000
C       -1.48870000      -2.04740000       0.07500000
C       -0.32220000      -3.00090000      -0.06960000
C       -0.18840000      -3.88880000       1.17510000
C       -0.50250000      -3.83210000      -1.34290000
O        0.64800000      -4.64960000      -1.50420000
H        0.75460000       2.05710000       0.78950000
H       -0.27220000       1.61860000      -0.58760000
H       -1.00680000       2.07320000       0.95640000
H        0.73290000      -0.42590000       0.48830000
H       -0.02110000       0.00300000       2.02140000
H       -2.30230000      -0.24250000       1.00570000
H       -2.44530000      -2.55260000       0.24190000
H        0.59980000      -2.42530000      -0.20070000
H        0.61630000      -4.61330000       1.03620000
H        0.02700000      -3.29200000       2.06680000
H       -1.11500000      -4.44550000       1.36060000
H       -1.41660000      -4.44430000      -1.25720000
H       -0.63430000      -3.15260000      -2.19720000
H        0.53950000      -5.16530000      -2.30810000
