16
Properties=species:S:1:pos:R:3 gdb_45011=T pbc="F F F"
N       -0.21090000       1.04360000      -0.76960000
C       -0.07670000      -0.02490000      -0.09390000
C       -1.27540000      -0.62270000       0.62290000
N       -1.29880000      -2.07590000       0.77040000
C       -0.90360000      -2.88230000      -0.36710000
C        0.00090000      -2.75050000       0.82650000
C        1.27060000      -1.98290000       0.65420000
O        2.36270000      -2.43540000       0.91770000
N        1.12260000      -0.70270000       0.13170000
H        0.67900000       1.36720000      -1.15640000
H       -1.30440000      -0.19370000       1.63210000
H       -2.17730000      -0.29740000       0.10210000
H       -1.45740000      -3.80630000      -0.50320000
H       -0.59530000      -2.38840000      -1.28660000
H        0.09030000      -3.57250000       1.52870000
H        1.99250000      -0.24720000      -0.11510000
