19
Properties=species:S:1:pos:R:3 gdb_68252=T pbc="F F F"
C       -0.15660000       1.53550000       0.01530000
C       -0.00120000       0.00900000       0.02510000
C       -1.31650000      -0.58680000      -0.18750000
C       -2.42840000      -1.00610000      -0.37590000
C        1.20600000      -0.67650000      -0.73350000
C        2.16650000      -0.12410000       0.35600000
C        0.91150000      -0.67330000       1.10840000
O        0.61440000      -0.60930000       2.45370000
C        1.00310000      -1.92310000       0.17620000
H        0.78600000       2.06720000       0.14810000
H       -0.60030000       1.85850000      -0.93090000
H       -0.83350000       1.84060000       0.81840000
H       -3.40480000      -1.39180000      -0.53510000
H        1.36240000      -0.67480000      -1.80960000
H        3.08700000      -0.69630000       0.49710000
H        2.36660000       0.94550000       0.38480000
H        1.25950000      -1.13560000       2.93840000
H        0.09290000      -2.50370000       0.03170000
H        1.88300000      -2.55780000       0.30910000
