21
Properties=species:S:1:pos:R:3 gdb_121575=T pbc="F F F"
C       -0.08350000       1.50840000       0.13120000
C        0.00060000      -0.01530000       0.00650000
C        0.72720000      -0.46960000      -1.26340000
C        0.81180000      -1.99000000      -1.38870000
C        1.52910000      -2.46230000      -2.64440000
O        1.99020000      -1.69930000      -3.46800000
C        1.62810000      -3.90200000      -2.79650000
C        1.70420000      -5.10110000      -2.91230000
C        1.80440000      -6.54220000      -3.06650000
H        0.91510000       1.95850000       0.15560000
H       -0.62040000       1.94520000      -0.71810000
H       -0.60620000       1.80650000       1.04540000
H        0.51170000      -0.42720000       0.88720000
H       -1.01220000      -0.44030000       0.01990000
H        0.22300000      -0.06430000      -2.14840000
H        1.74020000      -0.05100000      -1.28490000
H        1.32720000      -2.43480000      -0.52550000
H       -0.18750000      -2.44810000      -1.38560000
H        2.32800000      -6.80970000      -3.99000000
H        2.34920000      -6.98710000      -2.22660000
H        0.81010000      -7.00120000      -3.09500000
