18
Properties=species:S:1:pos:R:3 gdb_32883=T pbc="F F F"
N       -0.08900000       1.47820000      -0.03870000
C        0.01510000       0.08000000       0.00850000
C       -0.95760000      -0.83850000       0.26760000
O       -0.41880000      -2.10020000       0.30790000
C        0.91200000      -1.98040000       0.06170000
C        1.71350000      -3.23450000       0.06030000
C        1.78350000      -3.90100000       1.43740000
O        2.55880000      -5.08090000       1.29670000
C        1.23390000      -0.67050000      -0.12410000
H        0.51390000       1.88740000      -0.74100000
H       -1.03710000       1.79660000      -0.19200000
H       -2.01710000      -0.76940000       0.44640000
H        1.29340000      -3.95930000      -0.64770000
H        2.72920000      -3.00660000      -0.27590000
H        2.23540000      -3.20260000       2.15890000
H        0.76450000      -4.12430000       1.78590000
H        2.59090000      -5.52270000       2.15000000
H        2.21820000      -0.27640000      -0.32720000
