17
Properties=species:S:1:pos:R:3 gdb_123542=T pbc="F F F"
C       -0.04130000       1.58110000      -0.04720000
C        1.52120000       1.36490000      -0.00410000
C        1.18660000       0.17540000       0.97720000
C       -0.06260000       0.00790000       0.03220000
C        0.64010000      -0.33320000      -1.27820000
C        1.68130000       0.57080000      -1.28570000
N        2.38590000       0.36680000      -2.41020000
N        1.85750000      -0.64050000      -3.15910000
C        0.79040000      -1.06570000      -2.46320000
H       -0.42000000       2.06270000       0.85990000
H       -0.46080000       2.04730000      -0.94120000
H        2.21790000       2.16050000       0.25260000
H        1.89730000      -0.65230000       1.02610000
H        0.92320000       0.52500000       1.98050000
H       -0.94930000      -0.54120000       0.34160000
H        3.20740000       0.83640000      -2.75050000
H        0.19820000      -1.87510000      -2.86400000
