18
Properties=species:S:1:pos:R:3 gdb_98335=T pbc="F F F"
C        0.03890000       1.45440000       0.15440000
N       -0.02770000       0.00150000       0.16030000
C       -1.25860000      -0.60840000       0.12240000
O       -2.30550000       0.01600000       0.19790000
N       -1.23280000      -1.99900000       0.04740000
C       -0.01620000      -2.79060000       0.01530000
C       -2.49180000      -2.66380000      -0.21400000
C       -2.56620000      -3.22930000      -1.57340000
N       -2.59180000      -3.68410000      -2.63530000
H       -0.13480000       1.88220000      -0.84110000
H       -0.72760000       1.84170000       0.82550000
H        1.02330000       1.76820000       0.51030000
H        0.75760000      -0.48550000      -0.23750000
H        0.71680000      -2.38280000       0.71600000
H       -0.24470000      -3.80990000       0.33870000
H        0.43290000      -2.85390000      -0.98620000
H       -2.66060000      -3.47530000       0.50510000
H       -3.28010000      -1.91840000      -0.08310000
