16
Properties=species:S:1:pos:R:3 gdb_27054=T pbc="F F F"
C       -0.49610000       0.84550000      -1.11780000
C       -0.23170000      -0.31410000      -0.23150000
C       -0.93660000      -1.25120000       0.46960000
N       -2.28900000      -1.54350000       0.65030000
C       -3.39400000      -1.18480000      -0.07000000
N       -3.38480000      -0.39690000      -1.07300000
N       -0.06290000      -2.06900000       1.18060000
C        1.10790000      -1.61360000       0.88420000
O        1.10330000      -0.56950000       0.04370000
H        0.12000000       0.78400000      -2.02190000
H       -1.54920000       0.84700000      -1.39720000
H       -0.24930000       1.78990000      -0.61690000
H       -2.42280000      -2.24940000       1.35700000
H       -4.29060000      -1.66550000       0.33850000
H       -4.32760000      -0.28050000      -1.43450000
H        2.06650000      -1.97130000       1.22560000
