17
Properties=species:S:1:pos:R:3 gdb_107030=T pbc="F F F"
O       -0.04560000       1.45550000       0.30010000
C       -0.00140000       0.05620000       0.09120000
C       -1.35180000      -0.51830000      -0.19670000
O       -2.21260000      -0.76540000       0.94580000
C       -1.91640000      -1.86020000       0.06440000
C       -2.94330000      -1.71400000      -1.06860000
O       -4.28240000      -1.60610000      -0.64820000
C       -2.27480000      -0.32220000      -1.41630000
O       -3.13820000       0.77040000      -1.43920000
H       -0.69230000       1.62590000       0.99350000
H        0.65490000      -0.10030000      -0.77180000
H        0.43570000      -0.47730000       0.94960000
H       -1.47280000      -2.74720000       0.50260000
H       -2.89100000      -2.45660000      -1.86580000
H       -4.24140000      -1.22380000       0.24080000
H       -1.69000000      -0.37590000      -2.34390000
H       -4.01910000       0.40910000      -1.26160000
