20
Properties=species:S:1:pos:R:3 gdb_127152=T pbc="F F F"
C       -0.04030000       1.45390000      -0.03860000
N        0.04110000       0.00550000       0.03650000
C        0.83760000      -0.42130000       1.17410000
C       -1.29310000      -0.59840000       0.01800000
C       -1.28160000      -2.08700000      -0.18220000
N       -1.20500000      -2.60150000      -1.41030000
N       -1.22440000      -3.93260000      -1.22250000
C       -1.31880000      -4.28870000       0.08110000
C       -1.36170000      -3.11030000       0.79390000
H        0.96790000       1.87730000      -0.08900000
H       -0.57980000       1.75080000      -0.94370000
H       -0.55490000       1.91160000       0.83020000
H        0.40390000      -0.11460000       2.14780000
H        0.93720000      -1.50950000       1.17630000
H        1.84000000       0.01260000       1.10270000
H       -1.85520000      -0.36720000       0.94540000
H       -1.84380000      -0.14670000      -0.81280000
H       -1.18540000      -4.53710000      -2.02550000
H       -1.35120000      -5.32220000       0.38760000
H       -1.44160000      -2.99760000       1.86310000
