16
Properties=species:S:1:pos:R:3 gdb_53430=T pbc="F F F"
C        0.00990000       1.46680000       0.08300000
C       -0.01160000       0.01420000       0.00980000
C       -0.03080000      -1.18720000      -0.06080000
C       -0.04660000      -2.64670000      -0.13040000
O        0.63600000      -3.26530000       0.96790000
C       -0.33770000      -3.44400000       1.95820000
O       -1.56980000      -3.70220000       1.27800000
C       -1.46010000      -3.21690000       0.00900000
N       -2.33840000      -3.24170000      -0.88980000
H        0.69080000       1.81070000       0.86910000
H        0.34640000       1.90360000      -0.86320000
H       -0.98520000       1.86820000       0.30240000
H        0.42070000      -3.00180000      -1.05180000
H       -0.07580000      -4.31080000       2.56910000
H       -0.46310000      -2.54580000       2.58110000
H       -3.20120000      -3.66830000      -0.54940000
