23
Properties=species:S:1:pos:R:3 gdb_104068=T pbc="F F F"
C        0.54520000       1.37230000       0.13160000
C        0.08320000      -0.04490000       0.00480000
C        0.12580000      -0.81980000      -1.08100000
C       -0.46980000      -2.18380000      -0.85020000
C       -0.63540000      -2.26140000       0.69850000
C       -1.93760000      -2.95040000       1.11950000
C        0.57830000      -3.00520000       1.29810000
O        0.73670000      -4.33610000       0.83130000
C       -0.55720000      -0.77810000       1.16500000
H        1.30710000       1.47540000       0.91510000
H        0.96920000       1.74410000      -0.80540000
H       -0.28160000       2.03640000       0.41650000
H        0.51820000      -0.50760000      -2.04390000
H       -1.43860000      -2.28130000      -1.36170000
H        0.15300000      -3.00650000      -1.21830000
H       -1.99000000      -3.97670000       0.73700000
H       -2.03770000      -2.98940000       2.21110000
H       -2.80860000      -2.41790000       0.72450000
H        1.49760000      -2.48250000       1.01250000
H        0.51120000      -2.97940000       2.39790000
H        0.01900000      -4.86530000       1.19170000
H        0.01600000      -0.66920000       2.09690000
H       -1.55480000      -0.36790000       1.38010000
