24
Properties=species:S:1:pos:R:3 gdb_97369=T pbc="F F F"
C       -0.02220000       1.38850000      -0.04520000
N        0.05060000      -0.05690000      -0.05370000
C       -1.03510000      -0.68920000       0.01330000
O       -1.05290000      -2.03410000       0.04970000
C       -2.33770000      -2.67960000      -0.03710000
C       -2.70650000      -2.84850000      -1.50980000
C       -2.22260000      -3.99510000       0.75070000
C       -1.82010000      -3.72950000       2.20800000
C       -3.52130000      -4.81180000       0.68720000
H        0.45790000       1.78770000      -0.94620000
H       -1.04960000       1.78720000       0.00320000
H        0.53680000       1.78230000       0.81170000
H       -2.03100000      -0.21850000       0.06560000
H       -3.08400000      -2.03820000       0.45780000
H       -1.99580000      -3.51530000      -2.00810000
H       -3.71280000      -3.25900000      -1.62380000
H       -2.67880000      -1.88160000      -2.02110000
H       -1.42190000      -4.57620000       0.27340000
H       -2.59850000      -3.15970000       2.73080000
H       -1.68440000      -4.67220000       2.74710000
H       -0.88810000      -3.16410000       2.26480000
H       -3.43000000      -5.71280000       1.30130000
H       -4.37030000      -4.23580000       1.07560000
H       -3.76670000      -5.12990000      -0.32930000
