20
Properties=species:S:1:pos:R:3 gdb_90657=T pbc="F F F"
C        0.03260000       1.50210000      -0.05130000
C        0.08770000      -0.02160000      -0.05510000
C        1.23630000      -0.63230000      -0.90240000
N        1.96410000      -1.13180000       0.32120000
C        0.81090000      -0.62740000       1.15210000
C        1.05120000      -2.09530000       1.01360000
C        0.13810000      -3.07440000       0.31500000
C        1.79020000      -2.66200000       2.19160000
O        1.55540000      -3.73150000       2.69430000
H        1.01890000       1.93270000       0.15240000
H       -0.30740000       1.88030000      -1.02100000
H       -0.66000000       1.87000000       0.71310000
H       -0.91230000      -0.42610000      -0.24250000
H        0.98540000      -1.41340000      -1.62480000
H        1.85260000       0.12240000      -1.39660000
H        0.97190000      -0.10600000       2.09350000
H       -0.60570000      -2.59390000      -0.32090000
H        0.71990000      -3.77130000      -0.29730000
H       -0.38120000      -3.66600000       1.07260000
H        2.59380000      -1.99480000       2.57190000
