17
Properties=species:S:1:pos:R:3 gdb_1319=T pbc="F F F"
C        0.00550000       1.55510000      -0.11290000
C        0.05880000       0.05320000       0.06000000
O        0.95950000      -0.59610000      -0.87060000
C        1.43610000      -1.48940000       0.15450000
C        0.77970000      -0.61830000       1.25930000
C        1.76090000       0.24610000       2.03740000
O       -0.14520000      -1.25780000       2.11310000
H        0.99630000       2.00830000      -0.02540000
H       -0.39200000       1.79990000      -1.10290000
H       -0.65690000       2.00160000       0.63630000
H       -0.95130000      -0.37430000      -0.02330000
H        0.98110000      -2.48650000       0.08490000
H        2.52900000      -1.57620000       0.14920000
H        2.46110000       0.75420000       1.36900000
H        1.23370000       0.99900000       2.63110000
H        2.35410000      -0.37640000       2.71970000
H        0.32440000      -1.57210000       2.89280000
