19
Properties=species:S:1:pos:R:3 gdb_109480=T pbc="F F F"
C       -0.11170000       1.55520000       0.00460000
C        0.04390000       0.03370000      -0.00530000
N        0.70410000      -0.45460000      -1.21120000
C        0.03690000      -0.67620000      -2.41000000
N       -1.20940000      -0.45680000      -2.53190000
C        1.05520000      -1.19280000      -3.42150000
C        2.39090000      -1.23070000      -2.66180000
C        2.05970000      -0.74500000      -1.25280000
O        2.82000000      -0.62740000      -0.32100000
H        0.86470000       2.04590000      -0.04310000
H       -0.71900000       1.88520000      -0.84160000
H       -0.60710000       1.87160000       0.92760000
H        0.65790000      -0.29830000       0.83490000
H       -0.93460000      -0.44970000       0.04580000
H       -1.52160000      -0.68640000      -3.47450000
H        0.74420000      -2.17810000      -3.77980000
H        1.07850000      -0.52810000      -4.28940000
H        2.82860000      -2.22990000      -2.59650000
H        3.15450000      -0.57610000      -3.08970000
