18
Properties=species:S:1:pos:R:3 gdb_14025=T pbc="F F F"
C       -0.32050000       1.11330000      -0.09200000
O        0.53680000       0.00900000       0.12170000
C        0.92240000      -0.61060000      -1.06550000
C        1.51200000      -1.99560000      -0.95090000
C        0.15830000      -1.80030000      -1.56550000
C       -1.19690000      -2.32850000      -1.11690000
C       -1.45040000      -2.48070000      -2.63390000
O       -0.11020000      -2.02990000      -2.94900000
H        0.17450000       1.89750000      -0.68470000
H       -1.24500000       0.82380000      -0.61150000
H       -0.57390000       1.51910000       0.89020000
H        1.35310000       0.05290000      -1.81850000
H        2.34430000      -2.23790000      -1.60300000
H        1.54880000      -2.44000000       0.03890000
H       -1.16370000      -3.26720000      -0.56030000
H       -1.83420000      -1.61860000      -0.58760000
H       -1.62840000      -3.49950000      -2.99410000
H       -2.21050000      -1.81120000      -3.05320000
