20
Properties=species:S:1:pos:R:3 gdb_81946=T pbc="F F F"
C        0.24610000       1.64660000       0.00420000
C        0.08880000       0.12680000      -0.02280000
C        0.72730000      -0.59480000      -1.19290000
N        2.20340000      -0.57580000      -1.11800000
C        1.46830000      -1.79280000      -0.71370000
C        1.34980000      -1.91200000       0.79270000
C        2.63930000      -2.22240000       1.55190000
C        0.73390000      -0.55720000       1.20080000
O        0.75270000      -0.10020000       2.31400000
H        1.29530000       1.91560000      -0.14600000
H       -0.35050000       2.12190000      -0.78020000
H       -0.07340000       2.03690000       0.97380000
H       -0.98060000      -0.13380000       0.01130000
H        0.25000000      -0.57950000      -2.16740000
H        2.60070000      -0.70090000      -2.04500000
H        1.55260000      -2.68560000      -1.32500000
H        0.59100000      -2.67460000       1.02770000
H        3.43180000      -1.53870000       1.23590000
H        2.48020000      -2.09160000       2.62530000
H        2.97130000      -3.24860000       1.36820000
