11
Properties=species:S:1:pos:R:3 gdb_130565=T pbc="F F F"
O        0.02800000      -0.05930000       0.00280000
C       -0.04180000       1.14850000       0.00630000
C        1.18650000       1.97490000       0.00060000
N        2.13540000       2.63530000      -0.00370000
C       -1.28560000       1.90580000       0.01650000
C       -1.48230000       3.26110000       0.02140000
O       -2.77660000       3.53960000       0.03080000
N       -3.51130000       2.33750000       0.03240000
C       -2.61870000       1.38870000       0.02390000
H       -0.80300000       4.10070000       0.01910000
H       -2.92910000       0.35420000       0.02320000
