16
Properties=species:S:1:pos:R:3 gdb_51038=T pbc="F F F"
O       -0.31510000       0.01750000      -0.30730000
C       -0.19620000       1.19210000      -0.14910000
O        1.01610000       1.80190000      -0.21490000
C        1.08740000       3.19670000       0.08110000
C        0.96170000       3.62710000       1.57800000
C        2.21450000       4.52260000       1.38550000
C        2.54880000       3.72330000       0.09720000
C        0.21680000       3.97420000      -0.80880000
N       -0.46670000       4.60340000      -1.49670000
H       -1.02810000       1.88930000       0.05510000
H        0.02580000       4.09420000       1.88680000
H        1.16760000       2.76040000       2.21050000
H        1.94900000       5.55950000       1.16990000
H        2.95810000       4.50730000       2.18220000
H        3.21440000       2.88000000       0.29180000
H        2.88950000       4.26430000      -0.78550000
