18
Properties=species:S:1:pos:R:3 gdb_7146=T pbc="F F F"
C       -0.21590000       1.51180000       0.01310000
C       -0.03050000       0.00680000       0.00230000
O       -1.34090000      -0.59470000       0.01140000
C       -1.36960000      -1.94090000       0.00440000
O       -0.38010000      -2.63250000      -0.00860000
C       -2.79220000      -2.45230000       0.01510000
C       -2.86000000      -3.97280000       0.00850000
O       -4.23490000      -4.32590000       0.01920000
H        0.76020000       2.00590000       0.00650000
H       -0.77590000       1.84300000      -0.86600000
H       -0.75850000       1.83240000       0.90680000
H        0.50950000      -0.33420000      -0.88670000
H        0.52680000      -0.34480000       0.87640000
H       -3.30780000      -2.05310000       0.89560000
H       -3.32380000      -2.04480000      -0.85200000
H       -2.34520000      -4.36120000      -0.88180000
H       -2.32930000      -4.36970000       0.88550000
H       -4.29580000      -5.28540000       0.01560000
