16
Properties=species:S:1:pos:R:3 gdb_25567=T pbc="F F F"
O       -0.41750000       0.31840000       0.49760000
C        0.03030000       1.00550000      -0.38240000
C        1.38040000       1.68370000      -0.35340000
C        1.28010000       3.17340000      -0.71420000
C        2.62020000       3.78660000      -0.94730000
N        3.75220000       3.19980000      -1.17570000
C        4.65890000       4.24020000      -1.34740000
C        4.01010000       5.41730000      -1.20880000
O        2.69480000       5.14260000      -0.94870000
H       -0.54870000       1.18200000      -1.32110000
H        1.83770000       1.53480000       0.62720000
H        2.02130000       1.18970000      -1.09580000
H        0.66860000       3.29960000      -1.61930000
H        0.76610000       3.73210000       0.07580000
H        5.70150000       4.05820000      -1.55270000
H        4.28680000       6.45640000      -1.25010000
