20
Properties=species:S:1:pos:R:3 gdb_121463=T pbc="F F F"
C       -0.23030000       1.61510000       0.16220000
C       -0.22470000       0.09080000       0.03250000
C        1.07690000      -0.53980000       0.52610000
N        1.03310000      -1.98970000       0.38210000
C        2.03780000      -2.66220000       0.74680000
O        3.19360000      -2.12600000       1.27980000
C        4.11390000      -3.17820000       1.57620000
C        3.40460000      -4.43770000       1.16840000
C        2.20220000      -4.11840000       0.68990000
H        0.58220000       2.06790000      -0.41780000
H       -1.17140000       2.04230000      -0.19720000
H       -0.10130000       1.92730000       1.20500000
H       -1.05920000      -0.34130000       0.59760000
H       -0.38100000      -0.20190000      -1.01260000
H        1.92960000      -0.12420000      -0.03310000
H        1.25110000      -0.26380000       1.57780000
H        5.04520000      -3.01190000       1.01740000
H        4.35930000      -3.15310000       2.64680000
H        3.84100000      -5.42250000       1.26690000
H        1.43030000      -4.76970000       0.30850000
