18
Properties=species:S:1:pos:R:3 gdb_39926=T pbc="F F F"
C       -0.20260000       1.45180000      -0.02350000
N        1.15300000       0.88720000       0.06080000
C       -0.01760000      -0.02070000       0.03170000
C       -0.27680000      -0.88100000       1.21760000
C       -0.61920000      -2.12440000       0.87100000
C       -0.67120000      -2.30710000      -0.62190000
C       -2.05270000      -2.09360000      -1.29130000
O       -1.71720000      -0.73350000      -1.63940000
C       -0.35710000      -0.89000000      -1.17290000
H       -0.53100000       1.98830000       0.86270000
H       -0.54790000       1.87530000      -0.96300000
H        1.59270000       0.90350000      -0.85760000
H       -0.17420000      -0.50710000       2.22950000
H       -0.85320000      -2.92420000       1.56480000
H       -0.09570000      -3.15960000      -0.98970000
H       -2.22710000      -2.70780000      -2.18420000
H       -2.92770000      -2.14870000      -0.63400000
H        0.36040000      -0.79020000      -1.99750000
