14
Properties=species:S:1:pos:R:3 gdb_48061=T pbc="F F F"
O       -0.97020000       1.40090000      -0.58780000
C        0.00600000       1.05500000       0.01610000
C        1.19600000       1.96070000       0.36180000
O        2.10950000       1.45800000       0.97930000
C        1.21940000       3.39920000      -0.04910000
C        1.97940000       4.32780000       0.92630000
C        2.63230000       3.95430000      -0.34390000
C        0.13590000       3.99820000      -0.78220000
N       -0.67360000       4.57910000      -1.36920000
H        0.16650000       0.02690000       0.40100000
H        1.56840000       5.32360000       1.03630000
H        2.31400000       3.83920000       1.83360000
H        3.41730000       3.20810000      -0.31260000
H        2.68880000       4.68270000      -1.14310000
