17
Properties=species:S:1:pos:R:3 gdb_70767=T pbc="F F F"
C       -0.05160000       1.42800000      -0.01230000
C        0.08150000      -0.06250000      -0.02960000
C        0.57860000      -0.97120000      -1.16320000
C        0.07090000      -1.91450000      -0.06970000
C       -0.04780000      -3.34960000      -0.08600000
N       -0.11920000      -4.50380000      -0.09760000
C        0.58850000      -1.02020000       1.10450000
C       -0.80890000      -1.03660000       1.70900000
N       -1.15650000      -0.99880000       0.22120000
H        0.92890000       1.90060000      -0.13170000
H       -0.69490000       1.76140000      -0.83250000
H       -0.48630000       1.78200000       0.92760000
H       -0.00760000      -0.95850000      -2.08540000
H        1.65340000      -0.98360000      -1.35690000
H        1.57930000      -1.05850000       1.56790000
H       -1.14420000      -1.95000000       2.20790000
H       -1.14770000      -0.15290000       2.25610000
