16
Properties=species:S:1:pos:R:3 gdb_60747=T pbc="F F F"
O       -0.41800000       1.10830000       0.21410000
C        0.07500000      -0.16220000      -0.03520000
C        0.94160000      -0.17990000      -1.29110000
O        1.19300000       0.84200000      -1.87870000
C        0.94300000      -0.70030000       1.12900000
O        1.52950000       0.01690000       1.89690000
N        1.07110000      -2.09230000       1.09620000
C        0.02750000      -3.00430000       1.56020000
C        1.31390000      -2.84640000       2.30840000
H        0.07060000       1.70480000      -0.37490000
H       -0.74610000      -0.87830000      -0.19930000
H        1.33040000      -1.16520000      -1.60820000
H       -0.86490000      -2.56500000       1.99900000
H       -0.14370000      -3.88080000       0.94220000
H        2.07430000      -3.61770000       2.23670000
H        1.30060000      -2.28440000       3.23760000
