17
Properties=species:S:1:pos:R:3 gdb_71757=T pbc="F F F"
C        0.01310000       1.52610000      -0.13880000
C       -0.04530000       0.03440000      -0.02370000
O        0.51950000      -0.70730000      -1.13310000
C       -0.23620000      -1.82830000      -0.61540000
C        0.44320000      -2.19600000       0.73070000
O       -0.63410000      -2.62350000       1.60260000
C       -1.04990000      -1.24310000       1.55250000
C        0.39010000      -0.72890000       1.27760000
C       -1.30000000      -0.89170000       0.05000000
H        1.05400000       1.86670000      -0.15910000
H       -0.47740000       1.86430000      -1.05600000
H       -0.48220000       1.99720000       0.71620000
H       -0.45340000      -2.60550000      -1.34510000
H        1.31840000      -2.84260000       0.74010000
H       -1.73480000      -0.93480000       2.33960000
H        1.09870000      -0.37240000       2.02090000
H       -2.26220000      -0.70200000      -0.41820000
