16
Properties=species:S:1:pos:R:3 gdb_34106=T pbc="F F F"
N        0.05610000      -1.11930000       0.06210000
C        0.01950000       0.03500000       0.02810000
C       -0.06060000       1.48660000      -0.01350000
C       -1.02710000       2.10720000       1.01250000
N       -1.02630000       3.53530000       0.62610000
C       -0.61370000       3.57400000      -0.77470000
C        0.79240000       3.07820000      -1.06690000
N        1.26550000       2.19280000       0.00210000
C       -0.40610000       2.20080000      -1.35440000
H       -2.01510000       1.63040000       0.93360000
H       -0.66040000       1.97270000       2.03590000
H       -1.95200000       3.93260000       0.72950000
H       -1.01480000       4.37370000      -1.38540000
H        1.48550000       3.56040000      -1.74640000
H        1.43220000       2.67590000       0.88510000
H       -0.79290000       1.75550000      -2.25900000
