18
Properties=species:S:1:pos:R:3 gdb_38450=T pbc="F F F"
C        0.11490000       1.41080000      -0.00480000
C        1.32970000       0.56730000       0.00270000
N       -0.05290000      -0.04940000       0.08120000
C        0.14610000      -0.55730000      -1.32340000
C        1.59460000      -0.00920000      -1.39090000
C        2.09600000       0.93470000      -2.51130000
O        3.15980000       0.22970000      -3.13450000
C        3.65540000      -0.62030000      -2.13340000
O        2.53560000      -1.07570000      -1.40820000
H       -0.14410000       1.92640000       0.91480000
H       -0.19140000       1.92880000      -0.91240000
H        2.02730000       0.52810000       0.83320000
H        0.14310000      -1.64800000      -1.33510000
H       -0.58180000      -0.17150000      -2.04560000
H        1.33840000       1.15030000      -3.26850000
H        2.44640000       1.88430000      -2.07890000
H        4.15680000      -1.47420000      -2.59630000
H        4.35480000      -0.07850000      -1.46930000
