17
Properties=species:S:1:pos:R:3 gdb_70808=T pbc="F F F"
C       -0.09860000       1.38840000       0.06450000
C        0.02500000      -0.09670000       0.01740000
O       -1.14410000      -0.87970000      -0.26780000
C       -0.39590000      -2.04830000       0.19270000
C       -1.21080000      -3.17500000       0.73210000
C        0.64890000      -1.10250000       0.90370000
C        1.24010000      -0.85740000      -0.53450000
C        0.69190000      -2.19740000      -0.90960000
O        1.06820000      -3.11560000      -1.58100000
H        0.85160000       1.84200000       0.35970000
H       -0.37740000       1.77990000      -0.91860000
H       -0.86600000       1.68290000       0.78620000
H       -1.90270000      -3.52630000      -0.03960000
H       -0.56220000      -4.00980000       1.01230000
H       -1.79190000      -2.86230000       1.60370000
H        1.16550000      -1.11030000       1.85240000
H        2.17800000      -0.38780000      -0.79630000
