16
Properties=species:S:1:pos:R:3 gdb_126236=T pbc="F F F"
C       -0.37350000       1.57340000      -0.09090000
C        0.06000000       0.10260000       0.04920000
C        0.78150000      -0.42010000      -1.14850000
C        2.11790000      -0.71140000      -1.37500000
N        2.26080000      -1.14880000      -2.67240000
N        1.10320000      -1.14320000      -3.25040000
N        0.20490000      -0.70340000      -2.33920000
C        3.19360000      -0.59990000      -0.46560000
C        4.09590000      -0.49870000       0.32470000
H        0.49310000       2.21990000      -0.25390000
H       -1.05770000       1.71160000      -0.93420000
H       -0.88610000       1.90710000       0.81570000
H        0.72920000      -0.00470000       0.90770000
H       -0.81720000      -0.52340000       0.25510000
H       -0.76590000      -0.63560000      -2.60210000
H        4.90060000      -0.41370000       1.01220000
