20
Properties=species:S:1:pos:R:3 gdb_73615=T pbc="F F F"
C        0.06330000       1.42290000       0.09040000
C       -0.03530000      -0.08500000       0.09090000
C       -0.63980000      -0.75550000      -1.14600000
C       -1.35340000      -2.02910000      -0.63020000
C       -1.39160000      -1.86470000       0.91320000
N       -0.50410000      -0.75120000       1.30120000
C        0.93450000      -0.87070000       0.94740000
C        1.61930000      -2.10820000       0.49630000
O        2.78200000      -2.32660000       0.74770000
H        0.75570000       1.76680000      -0.68540000
H       -0.91700000       1.86980000      -0.11060000
H        0.41520000       1.79210000       1.05630000
H       -1.35710000      -0.05910000      -1.59250000
H        0.10610000      -0.97330000      -1.91560000
H       -2.36130000      -2.11790000      -1.04310000
H       -0.81770000      -2.93480000      -0.92460000
H       -2.39520000      -1.58330000       1.24710000
H       -1.11820000      -2.77830000       1.44910000
H        1.57540000      -0.29330000       1.60970000
H        1.02740000      -2.83670000      -0.09220000
