16
Properties=species:S:1:pos:R:3 gdb_16285=T pbc="F F F"
C       -0.11100000       1.55090000       0.01710000
C        0.08840000       0.04740000       0.02560000
N        1.19900000      -0.47520000      -0.85220000
C        1.72780000      -1.26540000       0.26720000
C        2.22450000      -0.34460000       1.32180000
C        0.72920000      -0.63250000       1.25830000
C        0.00520000      -1.19210000       2.34540000
N       -0.60070000      -1.64990000       3.22050000
H        0.81560000       2.07680000       0.26130000
H       -0.43570000       1.88520000      -0.97340000
H       -0.87910000       1.83780000       0.74280000
H       -0.85400000      -0.46370000      -0.19790000
H        0.82520000      -1.06940000      -1.58420000
H        2.03020000      -2.30070000       0.16980000
H        2.72010000      -0.80920000       2.16700000
H        2.59400000       0.63680000       1.04150000
