18
Properties=species:S:1:pos:R:3 gdb_91570=T pbc="F F F"
O        0.09890000       1.40010000       0.05450000
C        0.04140000      -0.00520000       0.09100000
C        0.21180000      -0.60230000       1.51910000
C       -1.15540000      -1.28340000       1.37330000
C       -2.20790000      -0.23700000       1.12100000
C       -1.33760000      -0.67980000      -0.02070000
C       -1.87500000      -1.27580000      -1.30160000
C       -2.09870000      -0.22680000      -2.30190000
N       -2.22990000       0.63420000      -3.06220000
H       -0.17240000       1.69260000      -0.82320000
H        0.75330000      -0.45310000      -0.61800000
H        1.05490000      -1.29180000       1.59040000
H        0.28560000       0.14270000       2.31590000
H       -1.40650000      -2.28110000       1.71270000
H       -3.23080000      -0.59940000       1.08710000
H       -2.09520000       0.76360000       1.52870000
H       -1.17020000      -2.00290000      -1.72480000
H       -2.81560000      -1.80960000      -1.12670000
