21
Properties=species:S:1:pos:R:3 gdb_52713=T pbc="F F F"
C       -0.04890000       1.46470000       0.03260000
C       -0.03830000       0.00970000      -0.01690000
C       -0.02830000      -1.19490000      -0.03660000
C       -0.04210000      -2.65840000      -0.12330000
O       -1.36650000      -3.16140000      -0.29660000
C        0.92320000      -3.16060000      -1.22010000
C        1.06020000      -4.66630000      -1.25320000
C        0.08730000      -5.51580000      -2.02640000
C        1.50600000      -5.36450000      -2.51520000
H        0.59370000       1.83690000       0.83800000
H        0.30860000       1.90160000      -0.90630000
H       -1.05950000       1.84700000       0.21400000
H        0.28420000      -3.07820000       0.83740000
H       -1.77310000      -2.65040000      -1.00500000
H        0.56810000      -2.79070000      -2.19110000
H        1.90150000      -2.69330000      -1.05000000
H        1.42640000      -5.09670000      -0.32350000
H       -0.21680000      -6.46680000      -1.60380000
H       -0.69820000      -5.00670000      -2.57330000
H        1.67900000      -4.75450000      -3.39620000
H        2.17830000      -6.21080000      -2.42630000
