14
Properties=species:S:1:pos:R:3 gdb_62355=T pbc="F F F"
O       -0.04360000       1.38620000       0.00030000
C       -0.03680000       0.00020000       0.01220000
C        1.03750000      -0.57790000      -0.75000000
C        1.92460000      -1.08610000      -1.38100000
C       -0.48760000      -0.76850000       1.21480000
O       -1.49570000       0.02160000       1.89270000
C       -2.36670000      -0.15050000       0.79270000
N       -3.56740000       0.16730000       0.66400000
C       -1.34910000      -0.85440000      -0.03230000
H       -0.46810000       1.67200000       0.82070000
H        2.71520000      -1.52170000      -1.94120000
H        0.05670000      -1.50070000       1.79570000
H       -3.93040000       0.62970000       1.49870000
H       -1.50880000      -1.63680000      -0.75800000
