17
Properties=species:S:1:pos:R:3 gdb_33756=T pbc="F F F"
N       -0.01140000      -1.09710000      -0.08810000
C        0.00460000       0.05820000      -0.02970000
C       -0.00460000       1.49660000       0.00710000
C       -0.66750000       2.43220000       1.07660000
C       -0.04300000       3.39570000       0.01830000
C        1.21620000       2.47390000       0.02570000
C       -0.61690000       2.44970000      -1.05170000
C       -0.67630000       2.40060000      -2.51510000
N       -1.91250000       2.45770000      -1.67130000
H       -1.75640000       2.40260000       1.13390000
H       -0.19990000       2.42200000       2.06340000
H       -0.06530000       4.48300000       0.02380000
H        1.80440000       2.46750000       0.94530000
H        1.84390000       2.47730000      -0.86700000
H       -0.49840000       3.29020000      -3.11270000
H       -0.43630000       1.46230000      -3.00920000
H       -2.35330000       1.54100000      -1.63160000
