17
Properties=species:S:1:pos:R:3 gdb_11661=T pbc="F F F"
C       -0.00890000       1.53750000      -0.02390000
C       -0.02120000       0.00570000       0.06070000
C       -1.41020000      -0.55740000      -0.01510000
C       -1.90670000      -2.04400000       0.04660000
C       -3.20740000      -1.18400000       0.03770000
N       -2.53350000      -0.17910000       0.97140000
C       -2.51820000      -0.38250000      -1.08220000
O       -2.70260000       0.06730000      -2.16600000
H        1.01180000       1.92270000       0.05120000
H       -0.43380000       1.87620000      -0.97320000
H       -0.60380000       1.97450000       0.78270000
H        0.56570000      -0.42500000      -0.76030000
H        0.45760000      -0.33000000       0.98980000
H       -1.69760000      -2.71460000      -0.79350000
H       -1.71190000      -2.52460000       1.01030000
H       -4.24110000      -1.49610000       0.16800000
H       -2.33590000      -0.67390000       1.84890000
