18
Properties=species:S:1:pos:R:3 gdb_69857=T pbc="F F F"
O       -0.01610000       1.32490000       0.15740000
C        0.03980000      -0.05580000       0.02700000
C       -0.35180000      -0.77100000      -1.24390000
C       -1.16480000      -0.94410000       0.02790000
N       -0.83400000      -1.99690000       1.04830000
C        0.62190000      -2.30180000       0.74550000
C        0.86370000      -0.81570000       1.08930000
O        2.09460000      -0.21080000       1.32710000
C       -0.28520000      -1.07170000       2.13180000
H        0.89170000       1.64830000       0.10900000
H       -0.84490000      -0.12430000      -1.96380000
H        0.23150000      -1.56230000      -1.69960000
H       -2.18600000      -0.58560000       0.06510000
H        1.00500000      -2.98650000       1.50670000
H        0.84450000      -2.70000000      -0.24310000
H        2.51680000      -0.63860000       2.07860000
H       -0.93540000      -0.23680000       2.39990000
H        0.01030000      -1.64580000       3.01510000
