20
Properties=species:S:1:pos:R:3 gdb_9854=T pbc="F F F"
C        0.03080000       1.48170000      -0.13090000
O       -0.16080000       0.08820000      -0.19910000
C        0.66940000      -0.58490000      -1.13470000
C        2.08490000      -0.79390000      -0.58500000
C       -0.00490000      -1.90930000      -1.48140000
O        0.69330000      -2.63410000      -2.46320000
C       -0.75950000      -2.68210000      -0.43190000
C       -1.49410000      -2.00170000      -1.57430000
H        1.02770000       1.75410000       0.24500000
H       -0.10910000       1.95870000      -1.11320000
H       -0.71750000       1.87500000       0.56180000
H        0.72930000       0.00620000      -2.06400000
H        2.71120000      -1.29880000      -1.32640000
H        2.56650000       0.15920000      -0.34990000
H        2.05270000      -1.39760000       0.32760000
H        1.41600000      -3.10080000      -2.03060000
H       -0.67800000      -3.76330000      -0.46330000
H       -0.85090000      -2.24600000       0.55560000
H       -2.07310000      -1.11710000      -1.34110000
H       -1.88470000      -2.63190000      -2.36470000
