17
Properties=species:S:1:pos:R:3 gdb_29996=T pbc="F F F"
C       -0.08320000       1.57510000       0.04760000
C        0.01870000       0.03940000       0.04170000
C        0.81730000      -0.52560000      -1.13550000
C        1.85510000      -1.28190000      -0.72280000
C        1.86250000      -1.30710000       0.74320000
C        0.81090000      -0.55080000       1.16270000
O        0.72560000      -0.49930000       2.50730000
C        1.77440000      -1.26270000       2.96360000
C        2.50320000      -1.78200000       1.93320000
H        0.91250000       2.02690000       0.04800000
H       -0.62220000       1.92960000      -0.83620000
H       -0.61940000       1.92280000       0.93560000
H       -0.99880000      -0.37870000       0.01870000
H        0.54810000      -0.31210000      -2.16190000
H        2.56420000      -1.78840000      -1.36490000
H        1.85780000      -1.33250000       4.03530000
H        3.37240000      -2.41330000       2.03370000
