18
Properties=species:S:1:pos:R:3 gdb_22403=T pbc="F F F"
C        0.65240000       1.58080000      -0.58410000
C        0.33470000       0.19510000      -0.27010000
C        0.07640000      -0.95410000      -0.01570000
C       -0.25220000      -2.32600000       0.30980000
C       -0.12790000      -2.77420000       1.81700000
C       -1.51130000      -3.37140000       1.68660000
C       -1.77300000      -2.73390000       0.33920000
N       -2.11870000      -4.18520000       2.44170000
O       -3.37870000      -4.52040000       1.90780000
H        1.37080000       1.64810000      -1.40870000
H       -0.24350000       2.13800000      -0.87990000
H        1.09060000       2.09460000       0.27880000
H        0.30640000      -3.01440000      -0.33150000
H        0.68880000      -3.45740000       2.05980000
H       -0.09170000      -1.91960000       2.49870000
H       -2.44290000      -1.87100000       0.39590000
H       -2.12310000      -3.39920000      -0.45310000
H       -3.71400000      -5.14480000       2.55990000
