21
Properties=species:S:1:pos:R:3 gdb_92984=T pbc="F F F"
C       -0.66170000       1.34360000      -0.04350000
C        0.08970000       0.01330000      -0.07710000
C        1.29260000      -0.02290000      -1.05660000
C        2.21030000      -1.04280000      -0.42800000
C        1.85980000      -1.32310000       0.82610000
C        0.66180000      -0.51610000       1.27870000
C        1.07550000       0.59250000       2.28710000
C        1.61960000       0.04910000       3.52560000
C        2.05600000      -0.42290000       4.54180000
H       -0.01280000       2.17330000       0.25660000
H       -1.05720000       1.58370000      -1.03600000
H       -1.51040000       1.31290000       0.64850000
H       -0.61100000      -0.75880000      -0.41770000
H        0.98400000      -0.28580000      -2.07510000
H        1.78820000       0.95690000      -1.13290000
H        3.06590000      -1.46190000      -0.94650000
H        2.38550000      -1.99450000       1.49490000
H       -0.08060000      -1.14200000       1.78800000
H        1.81780000       1.25310000       1.82160000
H        0.20560000       1.21720000       2.52310000
H        2.44560000      -0.82620000       5.44320000
