23
Properties=species:S:1:pos:R:3 gdb_101868=T pbc="F F F"
C       -0.08520000       1.53150000       0.06900000
C        0.01830000       0.00630000      -0.02910000
C        0.77400000      -0.50190000      -1.27010000
C        2.25130000      -0.08670000      -1.28370000
C        0.63840000      -2.02140000      -1.36880000
O        1.21780000      -2.46180000      -2.58300000
C        1.16360000      -3.86500000      -2.73160000
C        1.77710000      -4.25920000      -3.99340000
C        2.27700000      -4.61210000      -5.02660000
H        0.89680000       2.00260000       0.17220000
H       -0.56380000       1.95230000      -0.82240000
H       -0.68300000       1.82620000       0.93710000
H        0.50720000      -0.38530000       0.87390000
H       -0.99500000      -0.41650000      -0.03360000
H        0.28850000      -0.08420000      -2.16340000
H        2.36550000       0.99920000      -1.33900000
H        2.75960000      -0.43110000      -0.37430000
H        2.76210000      -0.52690000      -2.14280000
H        1.13910000      -2.50570000      -0.51080000
H       -0.42490000      -2.31410000      -1.33080000
H        1.68400000      -4.36370000      -1.89530000
H        0.11770000      -4.21740000      -2.70290000
H        2.72050000      -4.91720000      -5.94190000
