15
Properties=species:S:1:pos:R:3 gdb_10019=T pbc="F F F"
C       -0.12920000       1.33690000       0.35780000
N        0.01940000      -0.06740000       0.03410000
C        0.39960000      -0.84040000       0.95610000
N        0.57450000      -2.22380000       0.74190000
C        0.99890000      -3.05140000       1.79260000
N        1.23460000      -2.58810000       2.94910000
C        0.33060000      -2.79890000      -0.51430000
O        0.46600000      -3.97500000      -0.74510000
H        0.51660000       1.93070000      -0.29850000
H       -1.16010000       1.64840000       0.15620000
H        0.11380000       1.57810000       1.40370000
H        0.63060000      -0.55490000       1.98510000
H        1.08360000      -4.08690000       1.46190000
H        1.52990000      -3.33490000       3.57440000
H        0.00600000      -2.04550000      -1.24310000
