23
Properties=species:S:1:pos:R:3 gdb_119267=T pbc="F F F"
C       -0.25620000       1.62000000       1.51110000
C       -0.35190000       0.12480000       1.76560000
O        0.72080000      -0.50690000       1.07950000
C        0.87090000      -1.87880000       1.34180000
C       -0.18990000      -2.77780000       0.73700000
C       -0.27630000      -2.64490000      -0.78000000
O       -1.30570000      -3.51490000      -1.23030000
C        2.30240000      -2.32810000       1.35850000
C        1.51810000      -2.25070000       2.65410000
H       -0.31830000       1.83230000       0.43990000
H       -1.07190000       2.14590000       2.01640000
H        0.69490000       2.01310000       1.88170000
H       -0.28960000      -0.09240000       2.84270000
H       -1.32020000      -0.25950000       1.41150000
H        0.03150000      -3.81980000       0.99150000
H       -1.17590000      -2.55920000       1.16420000
H       -0.48580000      -1.59870000      -1.04600000
H        0.69510000      -2.90640000      -1.22930000
H       -1.38530000      -3.41480000      -2.18320000
H        2.54130000      -3.30530000       0.95300000
H        3.05150000      -1.56430000       1.18630000
H        1.76550000      -1.43920000       3.32920000
H        1.22200000      -3.17340000       3.14140000
