22
Properties=species:S:1:pos:R:3 gdb_76423=T pbc="F F F"
C       -0.30800000       1.02350000      -1.70940000
C       -0.08880000      -0.14120000      -0.76700000
C        1.28580000      -0.63230000      -0.34720000
C        2.57910000      -0.00410000      -0.82280000
C        0.36700000       0.02010000       0.67200000
C        0.68120000       1.38500000       1.25550000
C       -0.26430000      -0.93310000       1.69000000
C       -1.57470000      -0.47680000       2.16100000
N       -2.60660000      -0.10050000       2.52060000
H        0.43960000       1.81140000      -1.59600000
H       -0.26970000       0.68590000      -2.75080000
H       -1.29140000       1.47620000      -1.54420000
H       -0.82080000      -0.93310000      -0.91400000
H        1.36540000      -1.71370000      -0.25010000
H        2.50690000       1.07760000      -0.95390000
H        3.39120000      -0.19440000      -0.11240000
H        2.87920000      -0.42920000      -1.78690000
H        1.10330000       2.07020000       0.51960000
H       -0.22460000       1.85100000       1.65830000
H        1.40280000       1.29880000       2.07670000
H       -0.38900000      -1.92980000       1.25300000
H        0.39170000      -1.05160000       2.56220000
