14
Properties=species:S:1:pos:R:3 gdb_129116=T pbc="F F F"
N       -0.08900000       1.21430000       0.00760000
C       -0.03560000      -0.03640000       0.00060000
C       -1.23600000      -0.98890000       0.00230000
N       -0.54650000      -2.25360000      -0.00850000
N       -0.93230000      -3.54920000      -0.01280000
C        0.23070000      -4.20170000      -0.02370000
C        1.36890000      -3.34630000      -0.02460000
C        0.78890000      -2.10340000      -0.01510000
O        1.14610000      -0.78590000      -0.01000000
H        0.84130000       1.63320000       0.00460000
H       -1.85020000      -0.84530000       0.89620000
H       -1.86050000      -0.83570000      -0.88270000
H        0.22860000      -5.28190000      -0.02990000
H        2.41220000      -3.60720000      -0.03160000
