18
Properties=species:S:1:pos:R:3 gdb_76008=T pbc="F F F"
C       -0.13890000       1.54980000      -0.02390000
C        0.02220000       0.04890000       0.03430000
C        1.35840000      -0.63350000      -0.20410000
C        2.55570000       0.12040000      -0.42400000
C        3.56320000       0.74670000      -0.62430000
C        0.70870000      -0.64830000       1.20190000
C        1.33190000       0.12940000       2.34940000
C        0.14540000      -1.91850000       1.59030000
N       -0.30840000      -2.93510000       1.90620000
H        0.77150000       2.07500000       0.27020000
H       -0.37770000       1.85710000      -1.04700000
H       -0.95640000       1.87970000       0.62490000
H       -0.82020000      -0.50420000      -0.37010000
H        1.31680000      -1.58000000      -0.73400000
H        4.45720000       1.29140000      -0.80390000
H        1.85000000       1.01670000       1.98550000
H        0.56540000       0.43700000       3.06660000
H        2.06160000      -0.49150000       2.87630000
