18
Properties=species:S:1:pos:R:3 gdb_128462=T pbc="F F F"
C       -0.00830000       1.38710000      -0.05240000
O       -0.16740000      -0.00530000      -0.20930000
C        0.70640000      -0.59350000      -1.16520000
C        2.12960000      -0.77250000      -0.62150000
C        0.09460000      -1.90210000      -1.56500000
C       -0.48590000      -2.34100000      -2.71440000
C       -0.83860000      -3.68320000      -2.41540000
N       -0.49970000      -4.02380000      -1.19650000
O        0.09810000      -2.89080000      -0.65380000
H        0.96480000       1.65860000       0.38090000
H       -0.12070000       1.91840000      -1.01080000
H       -0.79490000       1.72020000       0.62850000
H        0.73460000       0.03420000      -2.07030000
H        2.76890000      -1.24350000      -1.37420000
H        2.57030000       0.19300000      -0.36080000
H        2.11160000      -1.40630000       0.26790000
H       -0.64190000      -1.79220000      -3.62790000
H       -1.32810000      -4.41250000      -3.04530000
