21
Properties=species:S:1:pos:R:3 gdb_109180=T pbc="F F F"
O        0.09690000       1.42230000       0.05430000
C        0.01300000       0.01300000      -0.03820000
C       -1.42020000      -0.44560000      -0.01580000
C       -2.44540000       0.40710000      -0.00080000
C       -3.88860000      -0.02470000       0.03360000
C       -4.04660000      -1.49600000       0.43420000
O       -5.35020000      -1.99240000       0.15690000
C       -3.05180000      -2.35760000      -0.33550000
C       -1.61070000      -1.94600000      -0.00690000
H        1.02170000       1.67130000      -0.02280000
H        0.48780000      -0.35420000      -0.96610000
H        0.55520000      -0.47420000       0.79300000
H       -2.23970000       1.47220000      -0.01290000
H       -4.45320000       0.61670000       0.72540000
H       -4.35490000       0.11500000      -0.95310000
H       -3.82690000      -1.59100000       1.51170000
H       -5.98520000      -1.42140000       0.60120000
H       -3.21970000      -3.41270000      -0.09890000
H       -3.24480000      -2.23290000      -1.40800000
H       -0.91910000      -2.41460000      -0.72020000
H       -1.32100000      -2.34250000       0.97820000
