21
Properties=species:S:1:pos:R:3 gdb_42009=T pbc="F F F"
C        0.13810000       1.42840000      -0.44110000
C        1.53440000       1.85310000       0.08120000
C        1.95840000       0.71340000       1.03480000
O        3.36440000       0.45420000       1.05940000
C        3.74220000      -0.66030000       0.26500000
C        3.13480000      -1.96250000       0.80000000
C        1.58490000      -1.83840000       0.96240000
C        1.14310000      -0.46860000       0.55060000
C        0.15460000      -0.07220000      -0.25070000
H       -0.66670000       1.89320000       0.14610000
H       -0.03590000       1.72270000      -1.48230000
H        2.25100000       1.88160000      -0.74650000
H        1.54210000       2.83550000       0.55930000
H        1.69730000       0.95820000       2.07580000
H        3.44820000      -0.51040000      -0.78620000
H        4.83490000      -0.69720000       0.29900000
H        3.38790000      -2.78270000       0.11950000
H        3.59570000      -2.19220000       1.76540000
H        1.05930000      -2.60150000       0.38120000
H        1.31990000      -2.01120000       2.01370000
H       -0.57650000      -0.73120000      -0.70850000
