17
Properties=species:S:1:pos:R:3 gdb_112451=T pbc="F F F"
C        0.26830000       1.39180000       0.08080000
O        0.17840000      -0.02770000       0.05230000
C        0.57120000      -0.59560000      -1.14390000
O        1.97500000      -0.42580000      -1.36700000
C        2.63890000      -1.56080000      -0.99610000
O        3.82020000      -1.65310000      -0.91060000
O        1.75670000      -2.55780000      -0.75850000
C        0.42310000      -2.12820000      -1.09000000
C       -0.56980000      -2.67630000      -0.08570000
H        1.30620000       1.72560000      -0.01890000
H       -0.33220000       1.83890000      -0.72430000
H       -0.12840000       1.71110000       1.04550000
H        0.05870000      -0.12880000      -1.99510000
H        0.20080000      -2.49780000      -2.09830000
H       -0.34670000      -2.30690000       0.91560000
H       -1.58370000      -2.36600000      -0.35410000
H       -0.53020000      -3.76820000      -0.08720000
