13
Properties=species:S:1:pos:R:3 gdb_132911=T pbc="F F F"
C       -0.03220000       1.50910000       0.01740000
C       -0.00470000       0.01140000      -0.01450000
N       -0.02840000      -0.60560000      -1.16160000
C       -0.00440000      -1.98360000      -1.22990000
O       -0.02230000      -2.64420000      -2.22220000
O        0.04780000      -2.70590000       0.00810000
C        0.07160000      -2.06010000       1.17260000
C        0.04740000      -0.71540000       1.21830000
F        0.07070000      -0.05320000       2.37830000
H        0.85540000       1.89500000       0.53050000
H       -0.07140000       1.89710000      -0.99970000
H       -0.89990000       1.86160000       0.58550000
H        0.11090000      -2.70550000       2.04290000
