18
Properties=species:S:1:pos:R:3 gdb_95573=T pbc="F F F"
O        0.23770000       1.27130000       0.33950000
C        0.03250000      -0.07850000       0.02060000
C       -1.46850000      -0.41990000       0.03140000
C       -1.74800000      -1.89180000       0.33790000
C       -1.06100000      -2.90310000      -0.53410000
C       -0.11190000      -2.74840000      -1.46090000
N        0.55610000      -1.59320000      -1.89540000
C        0.67380000      -0.35010000      -1.34020000
O        1.28800000       0.53670000      -1.91530000
H        0.79330000       1.61730000      -0.37980000
H        0.54070000      -0.72600000       0.75770000
H       -1.92530000       0.20400000       0.80450000
H       -1.92310000      -0.12440000      -0.92120000
H       -1.48040000      -2.09750000       1.38540000
H       -2.83040000      -2.06880000       0.28410000
H       -1.37840000      -3.93130000      -0.38210000
H        0.23850000      -3.62470000      -1.99640000
H        1.06400000      -1.67100000      -2.76540000
