18
Properties=species:S:1:pos:R:3 gdb_99790=T pbc="F F F"
C        0.04450000       1.48360000       0.01270000
C        0.03320000       0.02850000       0.00770000
C        0.03020000      -1.17590000       0.02290000
C       -0.00660000      -2.64280000      -0.03680000
N       -1.36890000      -3.21530000       0.00940000
C        0.66600000      -3.14510000      -1.37170000
N        0.74770000      -4.57890000      -1.52650000
C        0.75550000      -3.20480000       1.09810000
N        1.37520000      -3.65770000       1.96160000
H        0.67300000       1.86660000       0.82380000
H        0.43620000       1.88060000      -0.92980000
H       -0.96390000       1.88770000       0.15290000
H       -1.79430000      -3.01120000       0.90970000
H       -1.93020000      -2.72840000      -0.68570000
H        0.06530000      -2.71830000      -2.18390000
H        1.66360000      -2.70400000      -1.43920000
H        1.40170000      -4.96990000      -0.85460000
H       -0.15970000      -4.98940000      -1.32350000
