13
Properties=species:S:1:pos:R:3 gdb_31380=T pbc="F F F"
C        0.05890000       1.38020000       0.00700000
O       -0.03870000      -0.05740000       0.00360000
C       -1.25590000      -0.55430000       0.01120000
N       -2.32970000       0.13350000       0.02130000
C       -3.56190000      -0.54940000       0.02830000
O       -4.61180000       0.03100000       0.03770000
N       -3.52220000      -1.98400000       0.02390000
C       -2.39040000      -2.54030000       0.01370000
O       -1.17260000      -1.90890000       0.00640000
H        1.12740000       1.58980000      -0.00140000
H       -0.42960000       1.79340000      -0.87730000
H       -0.41430000       1.78810000       0.90210000
H       -2.25040000      -3.61710000       0.00950000
