19
Properties=species:S:1:pos:R:3 gdb_92889=T pbc="F F F"
C       -0.20340000       1.52080000      -0.00890000
C        0.04520000      -0.00700000      -0.02210000
C        0.77200000      -0.44370000      -1.26920000
C        1.96100000      -1.04100000      -1.27880000
C        2.74150000      -1.36910000      -0.03340000
C        2.29360000      -0.54650000       1.17430000
O        2.82680000       0.77190000       1.01250000
C        0.76600000      -0.43740000       1.25420000
O        0.17440000      -0.63080000       2.29190000
H        0.74590000       2.06030000      -0.03100000
H       -0.78970000       1.81410000      -0.88530000
H       -0.75980000       1.80770000       0.88810000
H       -0.93740000      -0.49550000       0.01970000
H        0.26190000      -0.23780000      -2.20790000
H        2.40920000      -1.33080000      -2.22550000
H        2.64460000      -2.43810000       0.20230000
H        3.81150000      -1.18550000      -0.18610000
H        2.64900000      -0.99940000       2.10830000
H        2.63490000       1.26450000       1.81800000
