14
Properties=species:S:1:pos:R:3 gdb_2900=T pbc="F F F"
O       -0.10280000      -0.04330000       0.13990000
C       -0.02420000       1.17290000       0.11340000
C        1.20240000       1.91650000       0.01630000
C        1.31160000       3.26620000      -0.04080000
N        2.60100000       3.69290000      -0.20040000
C        3.51250000       2.55730000       0.04780000
C        2.59200000       1.31770000      -0.11450000
H       -0.94120000       1.80540000       0.17460000
H        0.50660000       3.99120000      -0.01140000
H        2.86660000       4.61740000       0.10120000
H        4.34820000       2.57070000      -0.65620000
H        3.92280000       2.61610000       1.06510000
H        2.79420000       0.54570000       0.63140000
H        2.72170000       0.85060000      -1.09800000
