19
Properties=species:S:1:pos:R:3 gdb_12380=T pbc="F F F"
C       -0.02870000       1.56010000       0.00180000
C        0.09160000       0.03760000       0.01600000
C        0.75290000      -0.53600000      -1.25620000
C        0.94120000      -2.05000000      -1.15910000
N        1.76360000      -2.35230000       0.00860000
C        1.11440000      -1.97470000       1.26330000
C        0.80260000      -0.47790000       1.26670000
O        1.06500000       0.22540000       2.21360000
H        0.95940000       2.02670000      -0.05960000
H       -0.61750000       1.89140000      -0.85920000
H       -0.50480000       1.92430000       0.91450000
H       -0.91840000      -0.40290000       0.07380000
H        0.13990000      -0.28540000      -2.12910000
H        1.73360000      -0.06680000      -1.39770000
H       -0.05270000      -2.53970000      -1.12240000
H        1.45390000      -2.42530000      -2.05060000
H        2.00510000      -3.33650000       0.03070000
H        0.15470000      -2.50610000       1.43630000
H        1.77320000      -2.18690000       2.10820000
