18
Properties=species:S:1:pos:R:3 gdb_78705=T pbc="F F F"
O        0.02350000       1.45910000      -0.16980000
C        0.04370000       0.06150000      -0.03960000
C        0.00640000      -0.55310000       1.36840000
C       -1.49820000      -0.19300000       1.59430000
C       -1.33410000      -0.57710000       0.08760000
N       -0.71970000      -1.81420000       0.81060000
C       -1.75730000      -1.64990000       1.89360000
C       -1.86140000      -2.47600000       3.12470000
C       -2.96700000      -2.49550000       2.06810000
H        0.92840000       1.78220000      -0.12050000
H        0.72610000      -0.42740000      -0.74740000
H        0.78720000      -0.65840000       2.12350000
H       -1.92690000       0.71520000       2.02340000
H       -2.11970000      -0.70540000      -0.65740000
H       -1.22940000      -3.35510000       3.19840000
H       -2.06490000      -1.98440000       4.07070000
H       -3.91160000      -2.01650000       2.30560000
H       -3.05310000      -3.38720000       1.45560000
