17
Properties=species:S:1:pos:R:3 gdb_131141=T pbc="F F F"
O        0.08040000       1.37010000       0.10460000
C       -0.00220000      -0.03140000       0.01520000
C       -0.62770000      -0.75960000       1.18470000
C       -1.41380000      -0.54400000      -0.08890000
C        1.09160000      -0.65380000      -0.76730000
C        1.96550000       0.00790000      -1.60940000
N        2.79510000      -0.93410000      -2.12220000
N        2.52900000      -2.17460000      -1.67740000
C        1.49790000      -2.00880000      -0.85380000
H        0.84800000       1.57770000       0.65030000
H       -0.27820000      -1.75790000       1.42460000
H       -0.89420000      -0.14940000       2.04030000
H       -2.19650000       0.20560000      -0.07280000
H       -1.59580000      -1.39190000      -0.73910000
H        2.03970000       1.04990000      -1.87340000
H        3.55560000      -0.80010000      -2.76620000
H        1.07930000      -2.86810000      -0.35030000
