16
Properties=species:S:1:pos:R:3 gdb_43778=T pbc="F F F"
N       -0.01970000       1.20630000      -0.02470000
C       -0.04830000      -0.05120000      -0.00760000
O        1.03820000      -0.90660000      -0.02300000
C        0.38330000      -2.22270000       0.01010000
C       -0.75180000      -2.03320000      -1.03650000
C       -1.22650000      -0.99070000       0.03330000
C       -0.69960000      -2.00540000       1.10540000
C        1.33670000      -3.29720000       0.00080000
C        2.09810000      -4.22630000      -0.00550000
H        0.94410000       1.54510000      -0.05250000
H       -0.45400000      -1.67160000      -2.02200000
H       -1.40920000      -2.90000000      -1.10860000
H       -2.21760000      -0.54930000       0.05170000
H       -1.35220000      -2.86970000       1.23180000
H       -0.35440000      -1.61850000       2.06550000
H        2.77860000      -5.04190000      -0.01170000
