17
Properties=species:S:1:pos:R:3 gdb_116583=T pbc="F F F"
C        0.05790000       1.63750000       0.31070000
C       -0.10410000       0.29770000      -0.40300000
N       -1.50640000      -0.09400000      -0.44660000
C       -1.87430000      -0.99010000      -1.25930000
N       -1.11910000      -1.72470000      -2.18430000
C       -1.93550000      -2.65800000      -2.80730000
C       -3.22980000      -2.56040000      -2.43260000
C       -3.32360000      -1.49780000      -1.42690000
O       -4.28340000      -1.06640000      -0.83180000
H        1.11310000       1.92200000       0.37000000
H       -0.48380000       2.42360000      -0.22280000
H       -0.34820000       1.57840000       1.32390000
H        0.32880000       0.35810000      -1.41540000
H        0.46400000      -0.47660000       0.13640000
H       -0.11710000      -1.79510000      -2.16400000
H       -1.49350000      -3.34230000      -3.52000000
H       -4.05600000      -3.14510000      -2.80270000
