15
Properties=species:S:1:pos:R:3 gdb_123997=T pbc="F F F"
C       -0.01860000       1.51160000       0.02400000
N        1.30310000       2.17950000      -0.10210000
C        2.21180000       1.41940000      -0.82350000
C        2.10120000       0.07490000      -1.11740000
C        1.01010000      -0.68940000      -0.55250000
C        0.02580000      -0.00760000       0.05190000
N        3.18490000      -0.29990000      -1.85530000
N        3.96120000       0.72830000      -2.02920000
N        3.37010000       1.79260000      -1.40260000
H       -0.49940000       1.90270000       0.92450000
H       -0.64150000       1.83960000      -0.82280000
H        1.66820000       2.50820000       0.78440000
H        1.03770000      -1.77280000      -0.58010000
H       -0.79850000      -0.51720000       0.53960000
H        3.81010000       2.69780000      -1.43960000
