17
Properties=species:S:1:pos:R:3 gdb_75312=T pbc="F F F"
C       -0.06520000       1.49810000       0.04530000
C       -0.03800000       0.00630000      -0.02860000
C        0.07230000      -0.77320000      -1.10940000
C        0.05690000      -2.25150000      -0.78510000
C       -0.00260000      -2.26730000       0.73590000
O        1.11030000      -1.65670000       1.38110000
C       -0.09970000      -0.86300000       1.20380000
C       -0.76880000      -0.43600000       2.39700000
C       -1.34160000      -0.03750000       3.37620000
H        0.79350000       1.88110000       0.61030000
H       -0.04690000       1.94430000      -0.95210000
H       -0.96300000       1.84960000       0.56650000
H        0.20300000      -0.40360000      -2.12080000
H       -0.81260000      -2.76270000      -1.21800000
H        0.94970000      -2.77090000      -1.15460000
H       -0.45940000      -3.09240000       1.27540000
H       -1.84290000       0.30180000       4.24880000
