15
Properties=species:S:1:pos:R:3 gdb_127833=T pbc="F F F"
C        0.05260000       1.40050000       0.02470000
N        0.04620000      -0.04970000       0.02340000
C       -1.09190000      -0.63420000      -0.01740000
N       -2.33470000      -0.05560000      -0.09070000
C       -1.08720000      -2.10760000      -0.02600000
N       -2.17600000      -2.83140000      -0.01340000
O       -1.76430000      -4.13020000      -0.01890000
N       -0.39460000      -4.21570000      -0.03500000
C        0.03300000      -2.98690000      -0.03940000
H        1.08380000       1.76000000       0.03090000
H       -0.44760000       1.81970000      -0.86230000
H       -0.44760000       1.82050000       0.91310000
H       -2.43120000       0.91150000       0.16800000
H       -3.13640000      -0.64500000       0.06840000
H        1.08140000      -2.74010000      -0.05100000
