16
Properties=species:S:1:pos:R:3 gdb_17002=T pbc="F F F"
C        0.00920000       1.47920000      -0.00120000
C        1.32620000       0.74570000      -0.03810000
C        1.75540000       0.11830000       1.30150000
C        0.40660000      -0.69360000       1.31000000
C        0.04070000      -0.02810000      -0.03000000
O       -0.05950000      -0.66300000      -1.27370000
C        1.26680000      -0.62900000      -1.81060000
O        1.92260000       0.53010000      -1.28620000
H       -0.30190000       2.00550000       0.89790000
H       -0.27530000       1.94200000      -0.93770000
H        2.62960000      -0.52630000       1.19260000
H        1.93200000       0.81660000       2.12450000
H        0.56600000      -1.76840000       1.20560000
H       -0.28560000      -0.51820000       2.13850000
H        1.81680000      -1.53970000      -1.52220000
H        1.20930000      -0.54480000      -2.89890000
