17
Properties=species:S:1:pos:R:3 gdb_63448=T pbc="F F F"
C       -0.07610000       1.52310000      -0.02050000
C       -0.04410000       0.00990000       0.00710000
C       -1.26360000      -0.66620000      -0.58450000
N        1.27570000      -0.57670000      -0.21110000
C        0.69320000      -0.66820000       1.16240000
C        1.34460000       0.08780000       2.20170000
C        1.86230000       0.71130000       3.08810000
C        0.20930000      -1.96270000       1.59550000
N       -0.16840000      -3.00410000       1.92880000
H        0.83990000       1.94480000       0.39380000
H       -0.17870000       1.86740000      -1.05500000
H       -0.92960000       1.90150000       0.55060000
H       -1.33490000      -0.42010000      -1.64960000
H       -1.22610000      -1.75310000      -0.48250000
H       -2.17830000      -0.31190000      -0.09930000
H        1.20080000      -1.48810000      -0.66090000
H        2.32990000       1.25990000       3.86850000
