18
Properties=species:S:1:pos:R:3 gdb_19198=T pbc="F F F"
O       -0.02830000       1.51360000      -0.00940000
C        0.02970000       0.10800000       0.02840000
C        0.15280000      -0.62990000       1.40280000
C       -0.96690000       0.03270000       2.22310000
C       -2.10150000       0.04110000       1.13960000
C       -1.33870000      -0.61600000      -0.02590000
C       -0.62460000      -1.78810000       0.69970000
O        0.12020000      -2.58550000      -0.19720000
H        0.87040000       1.85390000      -0.04330000
H        0.72620000      -0.29400000      -0.71030000
H        1.11530000      -0.80190000       1.88980000
H       -1.23210000      -0.55060000       3.10980000
H       -0.69660000       1.04140000       2.54150000
H       -2.97570000      -0.54410000       1.43870000
H       -2.42940000       1.05190000       0.89220000
H       -1.86790000      -0.77510000      -0.96510000
H       -1.25780000      -2.40640000       1.35140000
H        0.73550000      -3.11510000       0.31960000
