21
Properties=species:S:1:pos:R:3 gdb_114117=T pbc="F F F"
C       -0.08460000       1.50430000      -0.02030000
C       -0.07300000      -0.02380000      -0.16810000
C       -1.43650000      -0.61740000      -0.00120000
C       -2.11590000      -1.00110000       1.27590000
C       -1.97940000      -2.02290000       0.15720000
C       -2.91090000      -1.66210000      -0.99540000
C       -4.42170000      -1.71090000      -0.85340000
O       -5.03590000      -0.94550000      -1.87450000
O       -2.42510000      -0.28230000      -0.99770000
H        0.91470000       1.91970000      -0.17920000
H       -0.76110000       1.95530000      -0.75190000
H       -0.42220000       1.80050000       0.97790000
H        0.31700000      -0.29810000      -1.15580000
H        0.59510000      -0.47240000       0.57650000
H       -1.45440000      -1.18460000       2.11740000
H       -3.07670000      -0.56910000       1.53790000
H       -1.46220000      -2.96480000       0.28080000
H       -2.61140000      -2.14110000      -1.93590000
H       -4.77340000      -2.74240000      -0.96830000
H       -4.72210000      -1.36410000       0.14640000
H       -4.61910000      -0.07580000      -1.83960000
