18
Properties=species:S:1:pos:R:3 gdb_32647=T pbc="F F F"
C       -0.00150000       1.54490000       0.02070000
C        0.04930000       0.01560000      -0.01650000
N        0.70280000      -0.50480000      -1.20920000
C        0.07490000      -0.85420000      -2.37090000
C        1.02610000      -1.23200000      -3.29690000
C        2.28690000      -1.10280000      -2.67490000
C        2.07200000      -0.64800000      -1.38030000
C        2.99010000      -0.36060000      -0.35210000
C        3.77210000      -0.11070000       0.53210000
H        1.00850000       1.96270000       0.02580000
H       -0.53520000       1.93930000      -0.84890000
H       -0.51800000       1.88170000       0.92510000
H        0.58890000      -0.36530000       0.85480000
H       -0.96030000      -0.40480000       0.01270000
H       -1.00080000      -0.81100000      -2.44260000
H        0.83000000      -1.57160000      -4.30200000
H        3.25430000      -1.32060000      -3.09940000
H        4.47030000       0.10170000       1.30300000
