21
Properties=species:S:1:pos:R:3 gdb_104808=T pbc="F F F"
C       -0.25740000       1.52900000       0.03630000
O       -0.22090000       0.11440000      -0.01800000
C        0.63350000      -0.49140000      -0.97910000
C        0.18530000      -0.20210000      -2.42160000
O        0.51650000       1.12960000      -2.79580000
C        2.14680000      -0.15860000      -0.78810000
C        2.82340000      -1.50090000      -0.91240000
C        1.95390000      -2.50930000      -0.88910000
C        0.53400000      -2.02580000      -0.74760000
H        0.74170000       1.96440000       0.17550000
H       -0.69690000       1.97180000      -0.86320000
H       -0.87130000       1.78310000       0.90480000
H        0.68320000      -0.92560000      -3.08460000
H       -0.90020000      -0.37420000      -2.47690000
H        0.27530000       1.25040000      -3.71860000
H        2.50010000       0.57840000      -1.51430000
H        2.31150000       0.26820000       0.21010000
H        3.90120000      -1.60400000      -0.97870000
H        2.21030000      -3.56200000      -0.93420000
H        0.13750000      -2.20600000       0.25870000
H       -0.16080000      -2.50620000      -1.44810000
