15
Properties=species:S:1:pos:R:3 gdb_43365=T pbc="F F F"
O        0.07120000       0.02180000      -0.34010000
C        0.04710000       1.17540000       0.05360000
C       -1.23020000       1.82390000       0.40430000
C       -1.56670000       3.12710000       0.32820000
C       -0.78590000       4.26240000      -0.12580000
C        0.54280000       4.35480000      -0.30450000
C        1.56750000       3.36650000       0.07010000
O        1.48320000       2.76000000       1.36080000
C        1.35230000       1.89330000       0.24050000
H       -2.00540000       1.10340000       0.64930000
H       -2.60560000       3.36380000       0.54820000
H       -1.37530000       5.14040000      -0.37750000
H        0.93630000       5.27450000      -0.72830000
H        2.58510000       3.64240000      -0.20610000
H        2.20640000       1.24210000       0.05390000
