14
Properties=species:S:1:pos:R:3 gdb_20273=T pbc="F F F"
O       -0.04240000       1.50550000       0.04880000
C        1.40130000       1.37580000       0.00020000
C        1.80100000       0.69910000       1.33830000
O        2.92090000      -0.16390000       1.01540000
C        1.95090000      -0.93530000       0.27920000
C        1.31570000       0.02000000      -0.78490000
C       -0.04790000       0.06670000      -0.04120000
C        0.77060000      -0.47330000       1.17810000
H        1.92630000       2.26730000      -0.33640000
H        1.93570000       1.30220000       2.23370000
H        2.25140000      -1.95190000       0.03500000
H        1.46160000      -0.02220000      -1.86030000
H       -0.99350000      -0.37820000      -0.34350000
H        0.37350000      -1.00040000       2.04060000
