17
Properties=species:S:1:pos:R:3 gdb_50619=T pbc="F F F"
O       -0.61190000       0.81180000      -0.74940000
C        0.05780000       1.07560000       0.21660000
C        1.31900000       1.92560000       0.15030000
C        1.49190000       2.62280000      -1.20320000
C        2.72240000       3.53480000      -1.21930000
C        2.78070000       4.41830000      -0.00640000
C        2.14610000       4.13840000       1.14010000
C        1.38820000       2.89070000       1.34690000
O        0.88810000       2.61030000       2.41890000
H       -0.20140000       0.71430000       1.22980000
H        2.15390000       1.22250000       0.31950000
H        1.54160000       1.87760000      -2.00070000
H        0.59660000       3.22280000      -1.40050000
H        3.64740000       2.93870000      -1.26590000
H        2.72880000       4.15070000      -2.12570000
H        3.38190000       5.32240000      -0.07610000
H        2.20160000       4.79310000       2.00420000
