16
Properties=species:S:1:pos:R:3 gdb_123586=T pbc="F F F"
N       -0.04260000       1.36350000      -0.01540000
C        1.22270000       1.81960000      -0.02590000
C        2.13760000       0.75760000      -0.01620000
C        1.35140000      -0.36820000       0.00080000
N        2.17700000      -1.56210000       0.01250000
C        3.22230000      -1.04190000       1.03190000
C        3.51560000       0.08910000      -0.01320000
C        3.21440000      -1.06750000      -1.02760000
N        0.06530000       0.00440000       0.00120000
H        1.38580000       2.88710000      -0.03990000
H        2.80210000      -0.76070000       1.99900000
H        4.02060000      -1.78090000       1.14620000
H        4.43340000       0.67440000      -0.02400000
H        4.01190000      -1.80910000      -1.12960000
H        2.78680000      -0.81030000      -1.99810000
H       -0.77100000      -0.55470000       0.01140000
