19
Properties=species:S:1:pos:R:3 gdb_86717=T pbc="F F F"
O       -0.06610000       1.45820000       0.10960000
C       -0.01500000       0.04350000       0.00550000
C        0.69360000      -0.63840000       1.20500000
C        0.01790000      -2.02390000       1.35790000
C        0.05350000      -2.52130000       2.78580000
O        0.58320000      -3.53800000       3.15410000
C       -1.40360000      -1.79700000       0.83570000
C       -2.15050000      -0.57040000       1.30840000
C       -1.41430000      -0.53990000      -0.00440000
H        0.82850000       1.79880000       0.00940000
H        0.48790000      -0.24770000      -0.93020000
H        1.77500000      -0.72230000       1.07070000
H        0.52500000      -0.02120000       2.09480000
H        0.52220000      -2.77220000       0.73840000
H       -0.46940000      -1.85140000       3.50870000
H       -1.97940000      -2.66950000       0.54900000
H       -3.23260000      -0.61440000       1.26100000
H       -1.77320000       0.01580000       2.13830000
H       -1.98530000      -0.48220000      -0.92340000
