17
Properties=species:S:1:pos:R:3 gdb_55731=T pbc="F F F"
C       -0.12490000       1.42660000      -0.12550000
C       -0.01020000      -0.02530000       0.25790000
O        0.85320000      -0.52090000       0.92700000
O       -1.05770000      -0.73140000      -0.27290000
C       -0.98580000      -2.12640000      -0.14870000
C       -1.31830000      -2.76860000       1.18150000
C       -2.31210000      -2.82900000       0.06480000
C        0.01670000      -2.78330000      -1.02730000
O        0.74190000      -2.20030000      -1.78960000
H        0.09380000       1.52970000      -1.19280000
H       -1.14160000       1.79170000       0.03860000
H        0.59060000       2.01220000       0.45050000
H       -0.77420000      -3.66540000       1.45660000
H       -1.49950000      -2.07910000       1.99640000
H       -3.17410000      -2.17380000       0.10660000
H       -2.47370000      -3.76940000      -0.45050000
H        0.03130000      -3.89290000      -0.92700000
