19
Properties=species:S:1:pos:R:3 gdb_91189=T pbc="F F F"
C        0.10870000       1.54470000      -0.02730000
C       -0.00760000       0.02720000       0.06240000
O        0.58000000      -0.55900000      -1.11460000
C        1.25680000      -1.74750000      -0.72470000
C        2.67030000      -1.98880000      -1.21040000
C        3.45360000      -2.36080000      -0.19290000
C        2.73000000      -2.35050000       1.15270000
C        1.48670000      -1.60210000       0.76270000
C        0.76370000      -0.58860000       1.21750000
H        1.16010000       1.84650000      -0.03470000
H       -0.36150000       1.90140000      -0.94810000
H       -0.39160000       2.02180000       0.82180000
H       -1.07730000      -0.24670000       0.10210000
H        0.62470000      -2.61810000      -0.98510000
H        2.96010000      -1.95020000      -2.25360000
H        4.48970000      -2.66950000      -0.28190000
H        2.52690000      -3.37660000       1.49310000
H        3.30020000      -1.86140000       1.94980000
H        0.76390000      -0.16440000       2.21400000
