15
Properties=species:S:1:pos:R:3 gdb_4475=T pbc="F F F"
C       -0.06900000       1.52180000       0.09900000
C        0.01640000       0.04040000      -0.01760000
C        0.08550000      -0.77580000      -1.11700000
O        0.09850000      -0.30880000      -2.40480000
C        0.15390000      -2.14290000      -0.69270000
C        0.12390000      -2.10440000       0.68230000
O        0.15700000      -3.06970000       1.63760000
N        0.04570000      -0.81230000       1.09140000
H        0.79800000       1.96000000       0.61240000
H       -0.10930000       1.95390000      -0.90360000
H       -0.96730000       1.85260000       0.63800000
H        0.03640000      -1.06010000      -3.00020000
H        0.22190000      -3.02260000      -1.31490000
H        0.21660000      -3.92420000       1.20070000
H        0.00420000      -0.52750000       2.05390000
