15
Properties=species:S:1:pos:R:3 gdb_25489=T pbc="F F F"
N       -0.16620000       1.31910000       0.01100000
C       -0.01480000       0.06790000       0.00330000
O       -1.13880000      -0.70730000       0.00830000
C       -1.03920000      -2.07120000       0.00110000
N        0.14860000      -2.65090000      -0.00930000
C        0.18100000      -3.99020000      -0.01590000
C       -0.95540000      -4.78430000      -0.01230000
C       -2.19920000      -4.14840000      -0.00130000
C       -2.25340000      -2.76540000       0.00560000
H        0.74690000       1.77070000       0.00560000
H        0.90820000      -0.51020000      -0.00730000
H        1.17140000      -4.43790000      -0.02440000
H       -0.87180000      -5.86430000      -0.01790000
H       -3.11620000      -4.72800000       0.00190000
H       -3.18560000      -2.21520000       0.01420000
