21
Properties=species:S:1:pos:R:3 gdb_61658=T pbc="F F F"
C       -0.01960000       1.57170000       0.08670000
C        0.00000000       0.03240000      -0.04890000
N        0.72770000      -0.70600000       0.97780000
C        2.16930000      -0.59870000       0.96710000
C        2.95420000       0.60400000       1.59570000
C        3.99970000      -0.41970000       2.11150000
C        2.94000000      -1.53930000       1.92620000
C       -1.38430000      -0.47500000      -0.10180000
N       -2.47910000      -0.84300000      -0.13140000
H        1.00030000       1.96090000       0.05470000
H       -0.59300000       2.02690000      -0.72630000
H       -0.47820000       1.86700000       1.03500000
H        0.46470000      -0.22350000      -1.01030000
H        0.34860000      -0.50770000       1.89820000
H        2.50480000      -0.75840000      -0.06470000
H        3.29710000       1.40600000       0.93650000
H        2.38600000       1.04680000       2.42110000
H        4.83530000      -0.53220000       1.41510000
H        4.40290000      -0.26800000       3.11430000
H        2.36720000      -1.70140000       2.84570000
H        3.25750000      -2.51050000       1.54070000
