18
Properties=species:S:1:pos:R:3 gdb_106130=T pbc="F F F"
C        0.07840000       1.33960000      -0.18720000
O       -0.01880000      -0.03200000       0.17480000
C       -1.28720000      -0.52660000       0.08930000
C       -1.74520000      -1.92340000      -0.02500000
N       -2.60270000      -1.83910000       1.12610000
C       -2.50190000      -0.31480000       1.08820000
C       -3.62260000       0.20970000       0.23870000
C       -3.39860000      -0.14260000      -1.04280000
C       -2.09130000      -0.80580000      -1.15790000
H        1.13170000       1.61450000      -0.10450000
H       -0.26400000       1.50430000      -1.21700000
H       -0.51380000       1.97440000       0.48570000
H       -1.24540000      -2.83510000      -0.32730000
H       -3.55820000      -2.16520000       0.96730000
H       -2.33280000       0.12240000       2.07160000
H       -4.52040000       0.66620000       0.63600000
H       -4.09160000      -0.02550000      -1.86730000
H       -1.57800000      -0.96820000      -2.09790000
