19
Properties=species:S:1:pos:R:3 gdb_120587=T pbc="F F F"
C        0.13600000       1.41370000      -0.11540000
C        0.45170000      -0.07000000      -0.09000000
O        0.25780000      -0.59180000      -1.41090000
C        0.47350000      -1.95530000      -1.49470000
C        0.63880000      -2.54320000      -2.85350000
C        1.86810000      -2.42220000      -1.93470000
N        2.86110000      -1.40120000      -2.13890000
C        2.36670000      -3.64260000      -1.34800000
N        2.73880000      -4.63660000      -0.88690000
H        0.80670000       1.94300000      -0.79840000
H       -0.89310000       1.58300000      -0.44390000
H        0.25700000       1.84000000       0.88450000
H        1.48590000      -0.25350000       0.23130000
H       -0.21350000      -0.60020000       0.60770000
H       -0.02370000      -2.55010000      -0.72950000
H        0.21770000      -3.52320000      -3.04590000
H        0.62630000      -1.85330000      -3.69010000
H        3.37120000      -1.55670000      -3.00260000
H        2.39160000      -0.50360000      -2.20920000
