16
Properties=species:S:1:pos:R:3 gdb_61979=T pbc="F F F"
C       -0.06780000       0.74020000       1.21860000
C       -0.38770000      -0.15010000       0.04710000
O       -0.72690000       0.20990000      -1.05070000
O       -0.24390000      -1.45830000       0.38970000
C       -0.48530000      -2.40990000      -0.64710000
C       -1.98950000      -2.63830000      -0.89820000
O       -2.18450000      -3.61740000      -1.89740000
C       -2.69270000      -2.98240000       0.35290000
N       -3.23420000      -3.29290000       1.32520000
H        0.95910000       0.56520000       1.55140000
H       -0.19510000       1.78190000       0.92790000
H       -0.72660000       0.49990000       2.05780000
H       -0.03720000      -2.08070000      -1.58670000
H       -0.01620000      -3.33700000      -0.30880000
H       -2.41480000      -1.71130000      -1.29200000
H       -1.95570000      -4.48080000      -1.53360000
