16
Properties=species:S:1:pos:R:3 gdb_28682=T pbc="F F F"
C        0.21200000       1.41420000       0.15510000
C        0.00370000      -0.05230000      -0.01970000
N       -0.47370000      -0.64430000      -1.09380000
C       -0.47260000      -1.99090000      -0.81380000
C        0.00460000      -2.22280000       0.44750000
C        0.16070000      -3.48370000       1.24350000
C        1.42120000      -3.53100000       1.99140000
N        2.40370000      -3.52180000       2.59960000
N        0.29970000      -0.97070000       0.95080000
H        1.26300000       1.65640000       0.34960000
H       -0.09430000       1.91910000      -0.76160000
H       -0.37960000       1.81450000       0.98630000
H       -0.81770000      -2.71870000      -1.53330000
H       -0.65750000      -3.61510000       1.96570000
H        0.11500000      -4.34200000       0.56590000
H        0.73480000      -0.78380000       1.84030000
