15
Properties=species:S:1:pos:R:3 gdb_31307=T pbc="F F F"
C       -0.02140000       1.44510000       0.02160000
O       -0.00090000       0.02760000       0.00080000
C        0.60250000      -0.54820000      -1.05600000
C        0.70450000      -1.91330000      -1.21870000
O        1.37460000      -2.16530000      -2.39770000
C        1.67960000      -0.97750000      -2.95050000
C        1.23790000       0.05870000      -2.18410000
C        0.27010000      -2.99040000      -0.43900000
C       -0.10910000      -3.91080000       0.24140000
H        0.99430000       1.86030000       0.03870000
H       -0.56150000       1.85080000      -0.84330000
H       -0.54200000       1.72990000       0.93680000
H        2.21110000      -1.01730000      -3.88740000
H        1.35130000       1.10850000      -2.39730000
H       -0.44460000      -4.71840000       0.84300000
