16
Properties=species:S:1:pos:R:3 gdb_39778=T pbc="F F F"
C       -0.00260000       1.49820000      -0.03030000
N        1.29750000       0.79200000       0.07340000
C        0.08600000       0.03020000       0.01450000
C       -0.51750000      -0.97590000       0.99920000
O       -1.62030000      -1.12680000       0.03020000
C       -0.55620000      -0.96240000      -0.97290000
C        0.24990000      -2.26680000      -0.74770000
O        1.48820000      -2.07900000      -0.04920000
C        0.28750000      -2.27150000       0.71570000
H       -0.28180000       2.06800000       0.85150000
H       -0.28260000       1.95900000      -0.97500000
H        1.80390000       0.77180000      -0.80730000
H       -0.83860000      -0.74600000       2.01320000
H       -0.91470000      -0.70870000      -1.96990000
H        0.16480000      -3.13910000      -1.38550000
H        0.24400000      -3.15090000       1.34760000
