15
Properties=species:S:1:pos:R:3 gdb_25524=T pbc="F F F"
N       -0.10560000       1.30360000       0.03830000
C       -0.01580000       0.04250000      -0.00100000
N       -1.05400000      -0.86390000       0.07390000
C       -0.56370000      -2.16880000      -0.03150000
C       -1.45060000      -3.36380000       0.03550000
C       -2.08720000      -3.50250000       1.41740000
O       -3.27170000      -3.50770000       1.61660000
C        0.76630000      -2.05390000      -0.14190000
O        1.13340000      -0.72090000      -0.12680000
H        0.81090000       1.73550000      -0.03760000
H       -2.01610000      -0.57910000       0.12320000
H       -2.25360000      -3.32330000      -0.70810000
H       -0.84540000      -4.25840000      -0.15270000
H       -1.35080000      -3.58470000       2.24750000
H        1.55610000      -2.77740000      -0.24080000
