14
Properties=species:S:1:pos:R:3 gdb_80746=T pbc="F F F"
O       -0.01210000       1.46980000       0.11940000
C        0.03460000       0.09310000       0.02820000
C       -0.35140000      -0.80910000       1.19540000
O       -1.04900000      -0.17140000       2.25190000
C       -2.38520000      -0.07680000       1.83000000
O       -2.36890000       0.04560000       0.41890000
C       -1.24480000      -0.71430000      -0.01320000
C       -3.16670000      -1.27740000       2.24050000
N       -3.77650000      -2.20190000       2.56760000
H       -0.94340000       1.72140000       0.16750000
H        0.85890000      -0.26070000      -0.58540000
H        0.21410000      -1.68780000       1.48160000
H       -2.83830000       0.82050000       2.25910000
H       -1.46880000      -1.50740000      -0.71640000
