23
Properties=species:S:1:pos:R:3 gdb_83537=T pbc="F F F"
C        0.12370000       1.56600000       0.94490000
C        0.11370000       0.09630000       0.55170000
C        0.74790000      -0.40980000      -0.79610000
C        2.15920000       0.16020000      -0.64870000
O        2.42700000      -0.19360000       0.73300000
C        1.20070000      -0.85520000       1.11120000
C        0.93130000      -1.81800000      -0.09280000
C       -0.33640000      -2.67840000      -0.03340000
C        2.09930000      -2.71070000      -0.51980000
H        1.13920000       1.95620000       1.03950000
H       -0.41670000       2.17630000       0.21240000
H       -0.37150000       1.70290000       1.91240000
H       -0.88660000      -0.31210000       0.68150000
H        0.24980000      -0.29810000      -1.76040000
H        2.89810000      -0.30520000      -1.30890000
H        2.21150000       1.24670000      -0.77730000
H        1.27100000      -1.17630000       2.15110000
H       -1.25760000      -2.12250000       0.14530000
H       -0.46070000      -3.21410000      -0.98160000
H       -0.24770000      -3.43630000       0.75340000
H        2.07320000      -3.65480000       0.03550000
H        2.03170000      -2.96120000      -1.58510000
H        3.06670000      -2.24530000      -0.32980000
