21
Properties=species:S:1:pos:R:3 gdb_75569=T pbc="F F F"
C        0.05020000       1.47050000       0.12510000
C       -0.02610000      -0.02700000       0.00180000
C       -0.04210000      -0.65990000      -1.17580000
C       -0.16310000      -2.15990000      -1.29470000
C        1.06630000      -2.92430000      -0.75930000
O        1.61250000      -2.38930000       0.43710000
C        0.68770000      -2.07740000       1.43010000
C        1.04040000      -0.87440000       2.24820000
C       -0.12550000      -0.81070000       1.27350000
H        0.93390000       1.77730000       0.69790000
H        0.09000000       1.95470000      -0.85460000
H       -0.81970000       1.86580000       0.66590000
H        0.03370000      -0.08100000      -2.09340000
H       -1.05350000      -2.49840000      -0.75220000
H       -0.31050000      -2.45790000      -2.33800000
H        0.79940000      -3.98430000      -0.62110000
H        1.88800000      -2.88000000      -1.48090000
H        0.22640000      -2.93620000       1.92040000
H        0.82880000      -0.88080000       3.31150000
H        1.95730000      -0.37010000       1.96370000
H       -1.11070000      -0.80720000       1.74040000
