17
Properties=species:S:1:pos:R:3 gdb_86741=T pbc="F F F"
N       -0.02810000       1.35330000       0.12070000
C        0.01480000      -0.03730000       0.08030000
O        1.04930000      -0.66930000       0.18250000
N       -1.20930000      -0.66180000      -0.04300000
C       -1.30990000      -2.12410000      -0.16860000
C       -2.82880000      -2.43260000      -0.01110000
O       -3.13850000      -3.19080000       1.15490000
C       -3.44980000      -1.05550000       0.00570000
C       -2.49170000      -0.12280000       0.04460000
H        0.89890000       1.74600000       0.04440000
H       -0.70600000       1.81770000      -0.46500000
H       -0.92240000      -2.43800000      -1.14200000
H       -0.72280000      -2.62190000       0.60570000
H       -3.18340000      -3.05800000      -0.83540000
H       -3.02410000      -2.60740000       1.91410000
H       -4.51280000      -0.87500000       0.06530000
H       -2.61120000       0.94640000       0.15030000
