16
Properties=species:S:1:pos:R:3 gdb_17214=T pbc="F F F"
C       -0.36020000       1.38080000       0.01050000
O        0.99850000       0.91310000       0.00040000
C       -0.04360000      -0.04460000       0.03500000
C       -0.17370000      -1.10460000       1.14210000
C       -0.45850000      -2.17250000       0.04790000
C       -1.90940000      -2.22040000      -0.46560000
O       -1.65870000      -1.18730000      -1.45060000
C       -0.27430000      -1.09160000      -1.06140000
H       -0.67260000       1.87860000       0.92760000
H       -0.70560000       1.84070000      -0.91390000
H        0.77900000      -1.26430000       1.65420000
H       -0.95660000      -0.95080000       1.89020000
H        0.09590000      -3.10760000       0.09290000
H       -2.19600000      -3.16170000      -0.94970000
H       -2.68930000      -1.93450000       0.25170000
H        0.41990000      -1.12260000      -1.90510000
