13
Properties=species:S:1:pos:R:3 gdb_25362=T pbc="F F F"
O       -0.18410000       0.02780000      -0.00020000
C       -0.01850000       1.21970000       0.00790000
C        1.28890000       1.89370000      -0.00160000
N        2.48680000       1.35080000      -0.02010000
C        3.36950000       2.39640000      -0.02140000
C        4.83290000       2.25240000      -0.03940000
O        5.43360000       1.20760000      -0.05500000
C        2.68340000       3.60440000      -0.00330000
N        1.36940000       3.27430000       0.00850000
H       -0.87880000       1.93050000       0.02360000
H        5.36730000       3.23070000      -0.03720000
H        3.02450000       4.62730000       0.00150000
H        0.59320000       3.91800000       0.02260000
