14
Properties=species:S:1:pos:R:3 gdb_22718=T pbc="F F F"
O       -0.03600000       1.27990000      -0.05900000
N        0.03170000      -0.11190000       0.04420000
C       -1.11650000      -0.63620000      -0.03840000
C       -2.57160000      -0.16460000      -0.08870000
C       -2.95590000      -1.64700000       0.07880000
O       -2.37670000      -2.38130000      -1.00210000
C       -1.51000000      -2.07570000       0.08930000
C       -4.06090000      -2.25790000       0.84030000
O       -4.83950000      -1.62360000       1.50830000
H        0.88800000       1.54020000       0.02760000
H       -2.83690000       0.45260000       0.77290000
H       -2.91760000       0.30740000      -1.00960000
H       -1.01440000      -2.89720000       0.59160000
H       -4.10290000      -3.36440000       0.75130000
