17
Properties=species:S:1:pos:R:3 gdb_79678=T pbc="F F F"
C       -0.04970000       1.60770000      -0.01580000
C        0.14090000       0.09400000       0.05900000
C        1.37070000      -0.70810000      -0.19680000
C        2.66330000      -0.15540000       0.46580000
O        2.37790000       1.08540000       1.12160000
C        2.04820000      -0.13950000       1.78740000
C        0.70950000      -0.69760000       1.23250000
C        0.02010000      -1.82830000       1.84430000
O        0.31210000      -2.30540000       2.91910000
H        0.72860000       2.08340000      -0.61340000
H       -1.01770000       1.82880000      -0.47590000
H       -0.03050000       2.06860000       0.97240000
H       -0.72030000      -0.45230000      -0.32710000
H        1.38420000      -1.56320000      -0.86130000
H        3.68010000      -0.34450000       0.14660000
H        2.44540000      -0.32440000       2.77590000
H       -0.81410000      -2.24420000       1.23230000
