23
Properties=species:S:1:pos:R:3 gdb_88976=T pbc="F F F"
C        0.13800000       1.52840000      -0.26540000
C        0.21040000       0.02550000      -0.10120000
C        1.52670000      -0.67360000       0.13990000
C        0.47550000      -0.65620000       1.22470000
C        0.70920000       0.10000000       2.52000000
C        1.58550000      -0.68270000       3.47300000
O        3.00080000      -0.65470000       3.24630000
C        2.50010000      -0.09360000       4.46620000
C        2.70610000       1.38260000       4.69300000
H        0.89260000       2.04520000       0.33450000
H        0.31120000       1.80870000      -1.31040000
H       -0.84400000       1.92030000       0.02400000
H       -0.48590000      -0.50960000      -0.74270000
H        1.73600000      -1.60510000      -0.37450000
H        2.40180000      -0.05170000       0.29990000
H       -0.05940000      -1.59290000       1.36910000
H        1.16860000       1.07040000       2.31890000
H       -0.25260000       0.29830000       3.01400000
H        1.20660000      -1.68370000       3.69770000
H        2.71850000      -0.70860000       5.34290000
H        2.47370000       1.97120000       3.80360000
H        2.07650000       1.73290000       5.51840000
H        3.74900000       1.57900000       4.96340000
