14
Properties=species:S:1:pos:R:3 gdb_1489=T pbc="F F F"
C        0.25450000       1.63910000      -0.00340000
C       -0.07270000       0.14950000      -0.18230000
N        0.65850000      -0.42380000      -1.30220000
C        1.79590000      -0.95710000      -1.09300000
N        2.47620000      -1.13780000       0.09880000
C        2.49370000      -1.51830000      -2.23900000
N        3.08010000      -1.96630000      -3.12840000
H        1.30670000       1.79200000       0.25920000
H        0.06200000       2.18170000      -0.93250000
H       -0.36170000       2.07390000       0.78930000
H        0.09970000      -0.39330000       0.76120000
H       -1.13910000       0.04570000      -0.40720000
H        2.23850000      -0.53490000       0.86910000
H        3.45000000      -1.38870000       0.04180000
