21
Properties=species:S:1:pos:R:3 gdb_92274=T pbc="F F F"
C       -0.13620000       1.57660000       0.05450000
C        0.03300000       0.05460000       0.02660000
C        0.82580000      -0.47160000      -1.21110000
C        1.46120000      -1.77700000      -0.70510000
C        2.85110000      -2.29670000      -1.14220000
C        3.46450000      -2.72620000       0.18170000
C        2.77680000      -2.26640000       1.24300000
C        1.63860000      -1.49180000       0.77620000
C        0.83530000      -0.50850000       1.19270000
H        0.83810000       2.07730000       0.07810000
H       -0.67550000       1.92850000      -0.83160000
H       -0.70020000       1.89900000       0.93650000
H       -0.97450000      -0.39440000       0.01960000
H        0.19500000      -0.59360000      -2.09700000
H        1.61350000       0.25240000      -1.45750000
H        0.74210000      -2.60290000      -0.81560000
H        2.80550000      -3.10920000      -1.87490000
H        3.45960000      -1.49990000      -1.59630000
H        4.39170000      -3.28630000       0.23900000
H        3.06380000      -2.39050000       2.28020000
H        0.76360000      -0.11170000       2.19950000
