19
Properties=species:S:1:pos:R:3 gdb_50695=T pbc="F F F"
O       -0.02100000      -0.04530000      -0.01740000
C        0.03090000       1.15320000       0.08600000
C        1.31090000       1.97020000       0.04320000
C        1.36620000       2.78710000      -1.26750000
C        2.55520000       3.75530000      -1.25590000
C        2.43630000       4.81130000      -0.14440000
C        1.93230000       4.24060000       1.16850000
O        0.51800000       4.00790000       1.26000000
C        1.38980000       2.87320000       1.26330000
H       -0.89160000       1.76470000       0.20840000
H        2.14770000       1.26230000       0.07370000
H        1.44260000       2.09550000      -2.11200000
H        0.43120000       3.34650000      -1.38850000
H        3.47770000       3.17790000      -1.11310000
H        2.64590000       4.25070000      -2.22800000
H        3.40760000       5.28930000       0.02240000
H        1.74520000       5.60720000      -0.44730000
H        2.35030000       4.67840000       2.07510000
H        1.44640000       2.35670000       2.22270000
