13
Properties=species:S:1:pos:R:3 gdb_129505=T pbc="F F F"
N       -0.11110000       1.28460000      -0.00040000
C        0.09440000      -0.05040000       0.00310000
O        1.14340000      -0.63270000      -0.01310000
N       -1.16320000      -0.77530000       0.03000000
N       -2.34930000      -0.17040000       0.03190000
N       -3.24900000      -1.10760000       0.05470000
C       -2.55390000      -2.28880000       0.06680000
N       -3.17560000      -3.50430000       0.14840000
N       -1.24080000      -2.11300000       0.04740000
H        0.69770000       1.87990000      -0.02300000
H       -1.04100000       1.66950000       0.01130000
H       -4.12830000      -3.50790000      -0.18220000
H       -2.62410000      -4.28860000      -0.16410000
