20
Properties=species:S:1:pos:R:3 gdb_55115=T pbc="F F F"
C        0.63960000       0.49110000      -0.72200000
C       -0.28300000       0.24060000       0.44990000
O       -0.08950000       0.73260000       1.54140000
C       -1.45910000      -0.70930000       0.26520000
C       -2.00270000      -1.18460000      -1.13050000
C       -1.69880000      -2.62640000      -0.71470000
N       -0.23430000      -2.67230000      -0.46100000
C       -1.15500000      -2.19490000       0.60280000
C       -1.17650000      -2.79590000       1.97190000
H        0.99140000      -0.46860000      -1.11440000
H        0.09850000       0.99100000      -1.53400000
H        1.47640000       1.11460000      -0.40400000
H       -2.26880000      -0.34930000       0.90420000
H       -3.06800000      -0.97330000      -1.24250000
H       -1.46910000      -0.84080000      -2.01880000
H       -2.23710000      -3.52740000      -0.98380000
H        0.00220000      -3.63760000      -0.23160000
H       -0.32950000      -2.43780000       2.56740000
H       -2.09380000      -2.52440000       2.50450000
H       -1.12240000      -3.88920000       1.92400000
