15
Properties=species:S:1:pos:R:3 gdb_125512=T pbc="F F F"
C        0.14150000       1.47230000       0.09310000
C        0.06100000      -0.01440000       0.02340000
N        0.21490000      -0.68650000      -1.10790000
N        0.07570000      -1.97850000      -0.70810000
C        0.13060000      -3.05310000      -1.67370000
C       -1.15040000      -3.28140000      -2.35880000
N       -2.15240000      -3.48150000      -2.89580000
C       -0.16110000      -2.01930000       0.62240000
N       -0.17110000      -0.80350000       1.12030000
H        0.94310000       1.78340000       0.77000000
H        0.33010000       1.88710000      -0.89810000
H       -0.79260000       1.88820000       0.48260000
H        0.89680000      -2.80890000      -2.41420000
H        0.43110000      -3.97320000      -1.16400000
H       -0.30970000      -2.94200000       1.16440000
