22
Properties=species:S:1:pos:R:3 gdb_12732=T pbc="F F F"
C        0.10920000       1.59780000      -0.05540000
C        0.07070000       0.07950000       0.04600000
C        0.94620000      -0.77770000      -0.91800000
C        1.37370000      -1.68980000       0.26820000
C        2.76310000      -1.36760000       0.85720000
C        2.13860000      -0.19150000       1.66540000
C        0.70150000      -0.66430000       1.26100000
C       -0.21200000      -1.06240000       2.40060000
H        1.13330000       1.98450000      -0.01920000
H       -0.33200000       1.93520000      -1.00020000
H       -0.45400000       2.06900000       0.75840000
H       -0.97270000      -0.25080000      -0.03500000
H        0.40410000      -1.27070000      -1.72870000
H        1.78430000      -0.22770000      -1.36050000
H        1.06800000      -2.73600000       0.20350000
H        3.13840000      -2.16260000       1.50790000
H        3.55000000      -1.11550000       0.13930000
H        2.33130000      -0.22060000       2.74110000
H        2.41070000       0.80440000       1.30730000
H       -0.53780000      -0.18310000       2.97130000
H       -1.11110000      -1.57070000       2.03350000
H        0.29120000      -1.73830000       3.10200000
