18
Properties=species:S:1:pos:R:3 gdb_95332=T pbc="F F F"
C       -0.62350000       1.31980000       0.04820000
C        0.19730000       0.03530000      -0.01170000
C        1.05300000      -0.01730000      -1.29650000
O        1.84880000      -1.20980000      -1.43390000
C        2.18110000      -1.81350000      -0.21350000
C        3.62460000      -1.84640000       0.37070000
O        3.11700000      -1.22950000       1.61160000
C        1.93700000      -0.94130000       0.97660000
N        1.09370000      -0.03360000       1.17230000
H        0.03260000       2.19570000       0.03700000
H       -1.31590000       1.38860000      -0.79690000
H       -1.20020000       1.34740000       0.97600000
H       -0.48730000      -0.82590000      -0.01400000
H        0.41560000       0.01250000      -2.18510000
H        1.70850000       0.86560000      -1.30920000
H        1.71450000      -2.80370000      -0.14610000
H        4.06960000      -2.82300000       0.56670000
H        4.32630000      -1.17520000      -0.12950000
