23
Properties=species:S:1:pos:R:3 gdb_95502=T pbc="F F F"
C       -0.19360000       1.46850000       0.12210000
C        0.00010000      -0.03930000      -0.01260000
C        0.72160000      -0.40640000      -1.31640000
C        0.76700000      -1.90880000      -1.63890000
C        1.56250000      -2.76550000      -0.68320000
C        1.50680000      -2.73600000       0.64770000
C        0.63080000      -1.82840000       1.49130000
C        0.99650000      -1.91860000       2.97070000
O        0.72000000      -0.45230000       1.14010000
H        0.77530000       1.97800000       0.11950000
H       -0.79280000       1.86040000      -0.70530000
H       -0.69830000       1.70270000       1.06290000
H       -0.99060000      -0.52960000      -0.00840000
H        0.21500000       0.10780000      -2.14280000
H        1.74160000      -0.00780000      -1.26440000
H       -0.26500000      -2.28970000      -1.69140000
H        1.17450000      -2.03500000      -2.64770000
H        2.23360000      -3.48760000      -1.14400000
H        2.13000000      -3.43260000       1.20510000
H       -0.42090000      -2.14740000       1.36940000
H        2.02790000      -1.58630000       3.12490000
H        0.33660000      -1.28230000       3.56470000
H        0.90800000      -2.94950000       3.32700000
