15
Properties=species:S:1:pos:R:3 gdb_128557=T pbc="F F F"
C       -0.02120000       1.42570000       0.05240000
O       -0.02230000       0.00470000      -0.00380000
C        0.57710000      -0.62750000      -1.02930000
C        0.63280000      -1.97340000      -1.09760000
C        1.28720000      -2.58830000      -2.23010000
N        1.39270000      -3.85410000      -2.38230000
N        1.84130000      -1.70020000      -3.22270000
N        1.77280000      -0.45490000      -3.12880000
N        1.14970000       0.10630000      -2.04290000
H        0.99800000       1.82930000       0.09580000
H       -0.56430000       1.86610000      -0.79320000
H       -0.54130000       1.68420000       0.97470000
H        0.19700000      -2.58490000      -0.32090000
H        1.89300000      -4.03880000      -3.25390000
H        1.14560000       1.11020000      -2.07510000
