15
Properties=species:S:1:pos:R:3 gdb_128109=T pbc="F F F"
C       -0.06190000       1.44430000       0.08640000
N       -0.05480000       0.00640000      -0.12550000
C       -1.17300000      -0.74540000      -0.04930000
C       -1.34260000      -2.12190000      -0.00150000
C       -2.76050000      -2.24920000       0.01790000
N       -3.39150000      -1.10660000      -0.00810000
O       -2.35380000      -0.12760000      -0.04770000
C       -0.32860000      -3.09560000       0.02140000
C        0.56500000      -3.90570000       0.04500000
H        0.90700000       1.84580000      -0.21590000
H       -0.83570000       1.90300000      -0.53260000
H       -0.24990000       1.71880000       1.13280000
H        0.80120000      -0.49740000       0.04580000
H       -3.33610000      -3.16380000       0.05150000
H        1.34070000      -4.63010000       0.05890000
