13
Properties=species:S:1:pos:R:3 gdb_21049=T pbc="F F F"
C        0.07860000       1.31260000       0.00880000
N       -0.02060000      -0.12690000       0.00150000
N        0.03210000      -0.83760000      -1.13010000
C        0.10050000      -2.09470000      -0.71430000
O        0.13880000      -3.16400000      -1.53180000
C        0.10790000      -2.10230000       0.69470000
O        0.15480000      -3.18040000       1.50010000
N        0.04400000      -0.84980000       1.12480000
H        1.12350000       1.64450000       0.00420000
H       -0.42380000       1.69640000      -0.87990000
H       -0.41280000       1.68650000       0.90770000
H        0.12300000      -2.83510000      -2.43880000
H        0.14850000      -2.86130000       2.41070000
