22
Properties=species:S:1:pos:R:3 gdb_98684=T pbc="F F F"
C       -0.33070000       1.66910000      -0.04840000
C       -0.39130000       0.17430000      -0.34730000
C        0.92520000      -0.39810000      -0.86030000
O        1.89390000       0.30030000      -1.06050000
C        0.92860000      -1.88580000      -1.07070000
N        1.92250000      -2.45470000      -2.00530000
C        2.04140000      -2.79160000      -0.58930000
C        3.26020000      -2.22150000       0.10550000
C        1.64260000      -4.18420000      -0.13870000
H        0.41490000       1.88290000       0.72200000
H       -0.04260000       2.23090000      -0.94020000
H       -1.30130000       2.03590000       0.29700000
H       -0.68810000      -0.40180000       0.54080000
H       -1.16360000      -0.04900000      -1.09800000
H       -0.06260000      -2.33640000      -1.05690000
H        1.49240000      -3.21890000      -2.52230000
H        3.49630000      -1.23140000      -0.28260000
H        3.09590000      -2.15440000       1.18670000
H        4.12050000      -2.87940000      -0.06180000
H        2.45340000      -4.89460000      -0.33880000
H        1.44230000      -4.21020000       0.93780000
H        0.74560000      -4.53630000      -0.65880000
