19
Properties=species:S:1:pos:R:3 gdb_26232=T pbc="F F F"
C       -0.08920000       1.53820000       0.36740000
C       -0.05500000       0.04550000       0.01470000
O        0.71700000      -0.68670000       0.96910000
C       -1.42280000      -0.53590000      -0.14450000
C       -2.09170000      -1.13410000      -1.16330000
C       -3.38560000      -1.48500000      -0.65210000
C       -3.41460000      -1.08280000       0.64630000
C       -4.43760000      -1.15580000       1.72190000
O       -2.22190000      -0.49630000       0.96880000
H        0.93050000       1.90860000       0.50110000
H       -0.57800000       2.11660000      -0.42290000
H       -0.64530000       1.69900000       1.29670000
H        0.46760000      -0.09000000      -0.93780000
H        0.20580000      -0.70950000       1.78580000
H       -1.71060000      -1.30790000      -2.15770000
H       -4.18680000      -1.97690000      -1.18150000
H       -4.07990000      -1.73490000       2.58120000
H       -4.70890000      -0.15950000       2.08980000
H       -5.34110000      -1.63620000       1.34020000
