12
Properties=species:S:1:pos:R:3 gdb_50810=T pbc="F F F"
O       -0.42740000       0.11120000       0.00740000
C       -0.11030000       1.26670000       0.00970000
N        1.19520000       1.75750000      -0.00050000
C        2.37340000       1.03320000      -0.01480000
O        2.50100000      -0.16240000      -0.02150000
C        3.59190000       1.99270000      -0.02200000
O        3.43470000       3.19630000      -0.01450000
C        4.87780000       1.35150000      -0.03760000
C        5.96480000       0.83560000      -0.05070000
H       -0.83410000       2.10500000       0.02020000
H        1.33040000       2.76240000       0.00280000
H        6.92280000       0.37360000      -0.06200000
