15
Properties=species:S:1:pos:R:3 gdb_10115=T pbc="F F F"
O        0.20490000       1.55630000      -0.03510000
C        0.33210000       0.17190000      -0.23150000
C       -0.96480000      -0.58090000       0.10680000
O       -1.19830000      -0.27690000       1.49550000
C       -2.23090000      -0.90460000       2.10450000
N       -2.44480000      -0.69530000       3.32850000
C       -2.09100000      -0.18790000      -0.73760000
C       -3.01790000       0.11200000      -1.44050000
H       -0.08990000       1.68310000       0.87470000
H        0.57540000       0.01050000      -1.28530000
H        1.13460000      -0.26360000       0.38320000
H       -0.78290000      -1.66000000      -0.00100000
H       -2.80300000      -1.55860000       1.43590000
H       -3.24830000      -1.23740000       3.63960000
H       -3.83310000       0.39130000      -2.06190000
