16
Properties=species:S:1:pos:R:3 gdb_126133=T pbc="F F F"
C       -0.06520000       1.51100000       0.09870000
C        0.02310000      -0.00730000      -0.03570000
C        0.74240000      -0.42700000      -1.29430000
O        1.20700000       0.31270000      -2.12280000
N        0.86320000      -1.83430000      -1.48550000
C        1.46260000      -2.47730000      -2.53010000
N        1.38360000      -3.77530000      -2.37140000
C        0.70870000      -3.89340000      -1.18220000
N        0.37240000      -2.75950000      -0.60820000
H        0.92950000       1.96270000       0.12610000
H       -0.60170000       1.95080000      -0.74570000
H       -0.59130000       1.77650000       1.01920000
H        0.53900000      -0.46600000       0.81560000
H       -0.96700000      -0.47760000      -0.04140000
H        1.92090000      -1.94010000      -3.34460000
H        0.46530000      -4.84800000      -0.73960000
