16
Properties=species:S:1:pos:R:3 gdb_19511=T pbc="F F F"
O        0.07540000      -0.08770000      -0.35710000
C        0.02800000       1.04550000       0.06240000
C        1.21760000       1.93800000       0.08720000
C        1.15820000       3.44290000      -0.17330000
C       -0.18190000       4.14450000      -0.03510000
O       -0.72520000       3.70900000       1.20860000
C        0.34700000       3.38030000       2.08830000
C        1.49980000       2.94940000       1.19790000
H       -0.91350000       1.47780000       0.45250000
H        2.10020000       1.44590000      -0.30970000
H        1.90010000       3.86450000      -0.84070000
H       -0.02300000       5.23470000      -0.04020000
H       -0.91150000       3.90110000      -0.81370000
H        0.65550000       4.25430000       2.68380000
H       -0.01770000       2.60970000       2.77450000
H        2.50690000       2.98780000       1.59520000
