21
Properties=species:S:1:pos:R:3 gdb_40643=T pbc="F F F"
C       -0.29370000       1.35370000      -0.27550000
C        1.11040000       1.43040000       0.26960000
C        0.44820000       0.08590000       0.07820000
C        0.02610000      -0.70810000       1.27690000
C       -0.68950000      -2.04050000       1.21020000
C       -0.58160000      -2.84040000      -0.07460000
O        0.80220000      -2.85740000      -0.42250000
C        1.58180000      -2.72310000       0.76500000
C        0.72140000      -1.96400000       1.75770000
H       -1.10550000       1.66360000       0.37490000
H       -0.45610000       1.58050000      -1.32350000
H        1.91350000       1.70980000      -0.40350000
H        1.23880000       1.79160000       1.28510000
H        0.80480000      -0.50430000      -0.75730000
H       -0.32480000      -0.07860000       2.09310000
H       -1.54350000      -2.22210000       1.85300000
H       -0.96170000      -3.86180000       0.08950000
H       -1.12000000      -2.40790000      -0.92500000
H        1.84640000      -3.70950000       1.17930000
H        2.50850000      -2.21110000       0.48310000
H        0.93270000      -2.08770000       2.81390000
