18
Properties=species:S:1:pos:R:3 gdb_48855=T pbc="F F F"
O       -0.47600000       0.67600000       0.75990000
C        0.17750000       1.01440000      -0.19480000
C        1.38900000       1.88590000      -0.13360000
C        1.97800000       2.15360000       1.24690000
O        2.23760000       3.51850000       1.51590000
C        3.00040000       4.12900000       0.49700000
C        2.17710000       4.26290000      -0.78920000
C        1.51850000       2.95630000      -1.18670000
N        2.26450000       1.71490000      -1.32510000
H       -0.07820000       0.69930000      -1.23020000
H        1.25660000       1.81760000       1.99470000
H        2.90220000       1.56300000       1.37180000
H        3.29060000       5.11590000       0.86660000
H        3.93050000       3.56010000       0.31690000
H        1.38840000       5.00550000      -0.62470000
H        2.80560000       4.63350000      -1.60870000
H        0.71430000       3.05420000      -1.91430000
H        3.23610000       1.83620000      -1.04420000
