18
Properties=species:S:1:pos:R:3 gdb_92402=T pbc="F F F"
N        0.28530000       1.19960000      -0.80840000
C        0.09910000      -0.05210000      -0.11780000
C        0.20680000      -0.16770000       1.43380000
N       -1.13260000      -0.82980000       1.53610000
C       -2.22460000       0.14300000       1.87110000
C       -2.46130000       0.48590000       0.37700000
C       -1.37030000      -0.56800000       0.05100000
C       -1.76710000      -1.67860000      -0.79620000
N       -2.06990000      -2.55310000      -1.49010000
H        0.13380000       1.99530000      -0.19900000
H        1.22110000       1.28080000      -1.18640000
H        0.69510000      -0.81650000      -0.62030000
H        1.01860000      -0.79520000       1.81220000
H        0.25250000       0.80300000       1.94450000
H       -3.06660000      -0.36120000       2.35280000
H       -1.89800000       0.96490000       2.51630000
H       -3.45200000       0.24470000      -0.00860000
H       -2.20070000       1.49620000       0.05560000
