19
Properties=species:S:1:pos:R:3 gdb_76622=T pbc="F F F"
C        0.07560000       1.33670000      -0.79730000
C       -0.02000000       0.00970000      -0.08160000
C        1.11660000      -0.92820000      -0.11360000
O        0.88390000      -0.12260000       1.05060000
C       -1.40540000      -0.54980000       0.10360000
C       -1.91120000      -1.08170000       1.43630000
O       -1.15350000      -0.93020000       2.60050000
C       -2.47980000       0.20070000       0.88080000
O       -2.12810000       1.36040000       1.56490000
H        1.11770000       1.65280000      -0.89200000
H       -0.35960000       1.25760000      -1.79940000
H       -0.48200000       2.09140000      -0.23810000
H        0.94140000      -1.99420000       0.01820000
H        2.01500000      -0.66790000      -0.67030000
H       -1.76130000      -1.09360000      -0.76900000
H       -2.51070000      -1.98820000       1.43090000
H       -0.23360000      -0.77570000       2.32300000
H       -3.48770000       0.22520000       0.47580000
H       -1.74870000       1.05450000       2.40560000
