16
Properties=species:S:1:pos:R:3 gdb_44428=T pbc="F F F"
O       -0.16390000       0.03860000       0.30140000
C       -0.11530000       1.21060000       0.12570000
N       -1.14110000       2.23390000       0.10860000
C       -0.27070000       3.06270000      -0.76920000
C        0.77280000       4.25700000      -0.76120000
C        1.06480000       4.60240000       0.69380000
C        1.21920000       3.14130000       1.19490000
C        0.90490000       2.40670000      -0.13610000
O        1.78250000       3.19130000      -1.06590000
H       -2.09360000       1.97950000      -0.12870000
H       -0.35780000       2.75540000      -1.81420000
H        0.74720000       5.02850000      -1.53040000
H        1.97750000       5.19320000       0.79220000
H        0.24150000       5.14290000       1.16780000
H        2.24090000       2.89830000       1.49490000
H        0.53970000       2.88070000       2.00650000
