16
Properties=species:S:1:pos:R:3 gdb_9806=T pbc="F F F"
C       -0.29430000       0.97190000      -1.29470000
C       -0.03710000       0.25610000       0.00850000
C        1.20810000      -0.49320000       0.22180000
O        1.01100000       0.79330000       0.82710000
C       -1.30250000      -0.12850000       0.78110000
O       -2.11630000      -0.96600000       0.00500000
C       -1.00260000      -0.77450000       2.12240000
O       -1.48380000      -1.84340000       2.41630000
H        0.64710000       1.20290000      -1.79880000
H       -0.91100000       0.34850000      -1.94710000
H       -0.82940000       1.91090000      -1.11530000
H        1.23490000      -1.33770000       0.90990000
H        1.95610000      -0.52280000      -0.56820000
H       -1.83440000       0.81410000       1.01700000
H       -2.28650000      -1.74380000       0.56140000
H       -0.34300000      -0.21220000       2.80660000
