15
Properties=species:S:1:pos:R:3 gdb_27767=T pbc="F F F"
O        0.10890000       1.33600000      -0.07200000
C        0.10560000       0.00350000       0.10680000
N        1.14710000      -0.80590000       0.00880000
C        0.68000000      -2.08110000       0.27220000
O        1.51250000      -3.14740000       0.25060000
C       -0.65980000      -2.02940000       0.53010000
C       -2.08420000      -2.43930000       0.86980000
C       -2.42910000      -0.90380000       0.73300000
N       -1.00050000      -0.68770000       0.41770000
H        1.01860000       1.57780000      -0.28440000
H        2.38560000      -2.80180000       0.03160000
H       -2.59230000      -3.07760000       0.14210000
H       -2.24640000      -2.84590000       1.87150000
H       -3.09970000      -0.64110000      -0.08810000
H       -2.75080000      -0.40810000       1.65160000
