19
Properties=species:S:1:pos:R:3 gdb_62220=T pbc="F F F"
C       -0.18630000       1.42080000       0.03940000
N        0.00430000      -0.01810000      -0.04760000
C       -0.02780000      -0.80920000       1.16570000
C       -1.43540000      -0.97560000       1.75910000
C       -1.39810000      -1.81550000       3.05080000
C       -2.72010000      -1.97620000       3.65080000
N       -3.77290000      -2.09220000       4.11250000
C        0.25100000      -0.59470000      -1.26220000
O        0.30040000      -0.01180000      -2.32310000
H        0.52620000       1.85880000       0.74860000
H       -0.01600000       1.83550000      -0.95410000
H       -1.20120000       1.67800000       0.36230000
H        0.38980000      -1.79630000       0.93610000
H        0.63530000      -0.35010000       1.91310000
H       -1.87210000       0.00270000       1.98140000
H       -2.08770000      -1.45660000       1.02340000
H       -0.98540000      -2.81110000       2.84810000
H       -0.73690000      -1.34750000       3.79000000
H        0.40920000      -1.68760000      -1.16890000
