20
Properties=species:S:1:pos:R:3 gdb_16340=T pbc="F F F"
C       -0.30940000       1.50140000      -0.11340000
C        0.08820000       0.03040000       0.07850000
C        0.85340000      -0.52850000      -1.08210000
O        0.12740000      -0.79170000      -2.29710000
C        0.87370000      -1.86510000      -1.70190000
C        2.32730000      -1.70810000      -2.15560000
C        2.32570000      -0.27440000      -1.50340000
C        2.61290000       0.91900000      -2.40380000
H        0.57050000       2.14670000      -0.20050000
H       -0.90660000       1.62230000      -1.02180000
H       -0.90120000       1.85800000       0.73470000
H        0.69350000      -0.07820000       0.98740000
H       -0.81160000      -0.57910000       0.21980000
H        0.32260000      -2.76640000      -1.45560000
H        3.01830000      -2.39780000      -1.66480000
H        2.47760000      -1.74800000      -3.23780000
H        2.97470000      -0.26410000      -0.62110000
H        1.90730000       0.93860000      -3.23910000
H        2.52750000       1.86570000      -1.85960000
H        3.62700000       0.86380000      -2.81450000
