21
Properties=species:S:1:pos:R:3 gdb_104892=T pbc="F F F"
C        0.66980000      -0.36970000       1.32470000
O        0.15610000       0.08050000       0.08380000
C        0.72340000      -0.49240000      -1.09810000
C        2.21170000      -0.13430000      -1.19270000
O        2.42220000       1.25470000      -1.03790000
C        0.48280000      -2.01790000      -1.26880000
C       -0.32250000      -2.11480000      -2.58220000
O       -0.06910000      -0.90300000      -3.27890000
C       -0.05790000       0.10730000      -2.28950000
H        0.61160000      -1.46130000       1.42660000
H        1.71130000      -0.06080000       1.48740000
H        0.04800000       0.08550000       2.09930000
H        2.78740000      -0.71260000      -0.45130000
H        2.57760000      -0.42140000      -2.18450000
H        1.77380000       1.55410000      -0.38830000
H        1.43100000      -2.55890000      -1.34170000
H       -0.07100000      -2.42900000      -0.42190000
H       -0.02170000      -2.94470000      -3.22600000
H       -1.39840000      -2.21460000      -2.36770000
H       -1.07480000       0.35860000      -1.95010000
H        0.41850000       0.99780000      -2.70290000
