20
Properties=species:S:1:pos:R:3 gdb_117133=T pbc="F F F"
C       -0.69200000       0.98360000       0.25900000
C        0.59940000       0.27400000      -0.15580000
N        1.28260000      -0.38930000       0.94760000
C        0.89710000      -1.64020000       1.34340000
O        0.05660000      -2.29280000       0.74690000
N        1.56440000      -2.13290000       2.47920000
C        2.63040000      -1.40160000       3.15130000
C        1.19050000      -3.38230000       2.95830000
N        1.74400000      -3.90290000       3.97970000
H       -0.49980000       1.75380000       1.01380000
H       -1.15580000       1.46770000      -0.60650000
H       -1.40210000       0.26220000       0.67120000
H        0.37970000      -0.49370000      -0.90030000
H        1.30370000       0.98330000      -0.60310000
H        1.82710000       0.18100000       1.57140000
H        2.25350000      -0.49350000       3.63860000
H        3.03660000      -2.05930000       3.91910000
H        3.42380000      -1.13300000       2.44680000
H        0.39600000      -3.81420000       2.35060000
H        1.33490000      -4.81530000       4.16720000
