14
Properties=species:S:1:pos:R:3 gdb_3678=T pbc="F F F"
C       -0.05410000       1.55510000      -0.00160000
C       -0.01460000       0.05980000      -0.01440000
C       -0.00840000      -0.80000000      -1.09330000
N        0.01160000      -2.05940000      -0.60040000
N        0.02910000      -2.09410000       0.75550000
C        0.00620000      -0.81300000       1.10870000
N       -0.06540000      -0.43340000       2.45220000
H        0.86930000       1.99310000       0.40050000
H       -0.18740000       1.95720000      -1.00980000
H       -0.87890000       1.92790000       0.61720000
H       -0.02330000      -0.60320000      -2.15450000
H        0.01170000      -2.92550000      -1.10820000
H        0.13500000      -1.21540000       3.06350000
H        0.54090000       0.34540000       2.67620000
