19
Properties=species:S:1:pos:R:3 gdb_110467=T pbc="F F F"
O       -0.01360000       1.38510000      -0.20120000
C        0.01890000      -0.02790000      -0.03980000
C       -1.41950000      -0.52250000       0.03470000
C       -2.19790000      -0.32530000      -1.25540000
C       -2.01160000      -1.51700000      -2.17990000
C       -3.29520000      -1.36040000      -1.38910000
C       -2.85350000      -2.51200000      -0.44920000
C       -1.57280000      -2.66880000      -1.24060000
C       -1.54070000      -2.03300000       0.14030000
H        0.89110000       1.69820000      -0.29010000
H        0.52770000      -0.51600000      -0.88580000
H        0.55860000      -0.30720000       0.87970000
H       -1.91940000      -0.02220000       0.87360000
H       -2.33330000       0.66060000      -1.68110000
H       -1.84340000      -1.44810000      -3.24550000
H       -4.29880000      -1.15240000      -1.73300000
H       -3.48580000      -3.26450000       0.00130000
H       -1.03590000      -3.56560000      -1.51680000
H       -1.10260000      -2.58410000       0.96490000
