18
Properties=species:S:1:pos:R:3 gdb_46147=T pbc="F F F"
O        0.01050000      -0.09230000      -0.03250000
C       -0.01850000       1.11590000      -0.03220000
C       -1.31340000       1.91750000      -0.01620000
C       -1.29590000       3.07010000      -1.03760000
C        0.00810000       3.89480000      -0.91520000
N        1.22060000       3.06760000      -1.01930000
C        1.24860000       1.97330000      -0.04280000
C        0.04680000       4.96290000      -1.91170000
C        0.04970000       5.81750000      -2.75610000
H       -2.15360000       1.23800000      -0.17830000
H       -1.41770000       2.33600000       0.99590000
H       -1.35410000       2.66930000      -2.05660000
H       -2.16800000       3.71800000      -0.90040000
H        0.03090000       4.35170000       0.08640000
H        1.28410000       2.69330000      -1.96170000
H        1.37430000       2.41040000       0.95950000
H        2.11150000       1.33100000      -0.23270000
H        0.06470000       6.58390000      -3.49110000
