15
Properties=species:S:1:pos:R:3 gdb_35623=T pbc="F F F"
C       -0.28600000      -1.20920000       0.28770000
C       -0.10500000      -0.03140000       0.13260000
C        0.05160000       1.40860000      -0.04340000
N       -0.65460000       2.17590000       1.00490000
C        0.31990000       2.58480000       1.90590000
N        1.53910000       2.52450000       1.54060000
C        1.52130000       1.97220000       0.16610000
C        2.59010000       1.01880000      -0.08700000
C        3.47720000       0.24470000      -0.32270000
H       -0.42240000      -2.25400000       0.42230000
H       -0.31330000       1.69380000      -1.03400000
H       -1.49230000       1.75280000       1.38150000
H        0.00730000       2.98540000       2.86620000
H        1.64080000       2.81830000      -0.52520000
H        4.26140000      -0.44370000      -0.51910000
