15
Properties=species:S:1:pos:R:3 gdb_4163=T pbc="F F F"
O        0.06980000       1.36110000      -0.18040000
C        0.02440000       0.04140000       0.31880000
C       -1.36000000      -0.55460000       0.09450000
O       -1.68060000      -0.56160000      -1.33150000
C       -1.80240000      -2.00690000      -1.36770000
C       -1.49880000      -2.05630000       0.10840000
N       -1.38070000      -2.91370000       1.02700000
O       -1.58920000      -4.21020000       0.53210000
H       -0.21740000       1.30980000      -1.10040000
H        0.78040000      -0.60350000      -0.15570000
H        0.24290000       0.08630000       1.39060000
H       -2.11450000       0.00530000       0.66090000
H       -2.80760000      -2.33620000      -1.65750000
H       -1.06370000      -2.48100000      -2.02550000
H       -1.47960000      -4.75280000       1.32080000
