13
Properties=species:S:1:pos:R:3 gdb_132063=T pbc="F F F"
N        0.00080000       1.40000000      -0.13160000
C        0.01760000       0.03270000      -0.05110000
C       -1.14040000      -0.69530000      -0.02300000
F       -2.31520000      -0.04310000      -0.01950000
C       -1.19890000      -2.12690000       0.00990000
O       -2.16960000      -2.83250000       0.03990000
O        0.07610000      -2.74610000       0.01310000
C        1.21230000      -2.03930000      -0.01070000
C        1.25740000      -0.69510000      -0.04270000
H        0.81660000       1.89850000       0.18390000
H       -0.87990000       1.84830000       0.06710000
H        2.08840000      -2.67690000      -0.00250000
H        2.20760000      -0.17800000      -0.07110000
