17
Properties=species:S:1:pos:R:3 gdb_113122=T pbc="F F F"
C        0.28180000       1.47950000       0.19970000
C       -0.32340000       0.12350000      -0.18630000
C        0.37540000      -0.47440000      -1.38040000
O        1.67940000      -1.00810000      -1.18220000
C        0.63020000      -1.93840000      -1.54210000
C        0.23000000      -2.87090000      -0.51410000
C       -0.11280000      -3.66360000       0.32110000
C        0.71920000      -2.49150000      -2.87410000
C        0.78030000      -2.94860000      -3.98330000
H        1.34110000       1.37060000       0.45010000
H        0.20190000       2.20110000      -0.62040000
H       -0.23250000       1.90120000       1.06780000
H       -0.26060000      -0.57460000       0.65300000
H       -1.38640000       0.23930000      -0.43260000
H        0.27000000       0.07950000      -2.31580000
H       -0.40900000      -4.36530000       1.06150000
H        0.84100000      -3.35710000      -4.96190000
