18
Properties=species:S:1:pos:R:3 gdb_68367=T pbc="F F F"
C       -0.14640000       1.49700000      -0.00600000
C        0.06870000       0.00550000       0.02070000
C        1.11580000      -0.69410000      -0.89220000
C        1.08850000      -1.81650000       0.18550000
C        0.75020000      -0.70860000       1.22080000
N       -0.11870000      -2.60570000      -0.00490000
C       -1.30580000      -1.97350000      -0.27900000
O       -2.34250000      -2.52280000      -0.54710000
O       -1.22730000      -0.60890000      -0.20640000
H        0.79940000       2.01960000       0.16280000
H       -0.55210000       1.80770000      -0.97330000
H       -0.85600000       1.79450000       0.77170000
H        0.81390000      -0.95300000      -1.90910000
H        2.06080000      -0.14710000      -0.89640000
H        1.94840000      -2.46860000       0.33360000
H        1.63950000      -0.16760000       1.54990000
H        0.12440000      -0.98320000       2.07180000
H       -0.08280000      -3.59000000      -0.20840000
