18
Properties=species:S:1:pos:R:3 gdb_57819=T pbc="F F F"
C        0.20400000      -0.36970000      -0.90470000
C       -0.20690000      -0.10680000       0.55160000
O       -0.24310000       1.28560000       0.84760000
C       -1.47820000      -0.76510000       0.87450000
C       -2.54570000      -1.26930000       1.11560000
C       -3.83510000      -1.88590000       1.40650000
O       -4.66760000      -2.03690000       0.25140000
C       -4.31390000      -3.01860000      -0.60670000
N       -4.96090000      -3.17670000      -1.67710000
H        1.14820000       0.14090000      -1.10990000
H        0.32770000      -1.44080000      -1.08900000
H       -0.55920000       0.00800000      -1.59260000
H        0.57140000      -0.50510000       1.21390000
H       -0.99110000       1.66400000       0.37150000
H       -3.69010000      -2.85860000       1.89720000
H       -4.41450000      -1.25970000       2.09050000
H       -3.45840000      -3.61580000      -0.26320000
H       -4.58370000      -3.96540000      -2.19830000
