21
Properties=species:S:1:pos:R:3 gdb_55148=T pbc="F F F"
C        0.24860000       1.12810000      -0.47420000
C        0.02210000      -0.32950000      -0.10750000
O        0.94040000      -1.11820000      -0.07680000
C       -1.41910000      -0.71430000       0.22880000
C       -2.28040000      -0.89550000      -1.07220000
C       -2.47580000      -2.39340000      -1.24140000
C       -1.25380000      -3.28040000      -1.23730000
C       -2.04860000      -3.08990000       0.02990000
C       -1.55190000      -2.04310000       1.01800000
H        1.25200000       1.26010000      -0.88050000
H       -0.49970000       1.48450000      -1.18890000
H        0.14350000       1.74410000       0.42740000
H       -1.83050000       0.12200000       0.80440000
H       -3.25350000      -0.41170000      -0.93690000
H       -1.81470000      -0.42630000      -1.94660000
H       -3.34760000      -2.72400000      -1.79550000
H       -1.34580000      -4.23790000      -1.73890000
H       -0.26680000      -2.83650000      -1.29750000
H       -2.60800000      -3.93260000       0.42110000
H       -0.59760000      -2.31710000       1.47630000
H       -2.28640000      -1.92090000       1.82140000
