21
Properties=species:S:1:pos:R:3 gdb_87140=T pbc="F F F"
C       -0.05610000       1.51100000      -0.04810000
C        0.09000000       0.00680000      -0.07630000
C        1.45780000      -0.63460000      -0.22470000
C        0.73830000      -0.72420000       1.08870000
O        1.30120000       0.05590000       2.10670000
C        0.18640000      -2.03340000       1.61060000
C       -0.66460000      -2.88550000       0.69850000
C        0.87150000      -2.65640000       2.75400000
O       -0.33540000      -1.89930000       2.95310000
H        0.73430000       1.96330000       0.55510000
H       -0.00460000       1.93040000      -1.05870000
H       -1.01790000       1.80610000       0.38620000
H       -0.71940000      -0.51720000      -0.57640000
H        1.56280000      -1.52320000      -0.83760000
H        2.31880000       0.02580000      -0.23500000
H        0.66690000       0.01900000       2.83680000
H       -0.12610000      -3.15340000      -0.21600000
H       -0.95150000      -3.80730000       1.20920000
H       -1.58000000      -2.35860000       0.41410000
H        0.77160000      -3.72830000       2.91720000
H        1.77190000      -2.19660000       3.15260000
