18
Properties=species:S:1:pos:R:3 gdb_26503=T pbc="F F F"
C       -0.32630000       1.30590000      -0.86020000
C       -0.05730000       0.04810000      -0.06300000
C        1.17400000      -0.72040000      -0.33890000
O        1.09090000       0.12250000       0.80870000
C       -1.23290000      -0.64150000       0.52500000
C       -2.55170000      -0.50830000       0.14310000
N       -3.30620000      -1.33300000       0.93770000
C       -2.49540000      -1.98790000       1.83020000
C       -1.20470000      -1.58150000       1.59960000
H        0.61400000       1.75270000      -1.19110000
H       -0.93440000       1.08540000      -1.74430000
H       -0.86430000       2.03960000      -0.25200000
H        1.18910000      -1.79030000      -0.13540000
H        1.85800000      -0.38530000      -1.11940000
H       -3.01010000       0.09350000      -0.62450000
H       -4.30410000      -1.43250000       0.88030000
H       -2.90540000      -2.67390000       2.55390000
H       -0.32720000      -1.88480000       2.14800000
