21
Properties=species:S:1:pos:R:3 gdb_106126=T pbc="F F F"
C        0.07560000       1.52400000       0.20960000
C       -0.05770000       0.01650000      -0.04630000
C        0.66950000      -0.44300000      -1.27600000
C        1.13080000      -1.80850000      -1.73100000
C        0.46710000      -1.62770000      -3.08700000
C        0.35870000      -0.07980000      -2.77860000
C        1.62100000       0.56660000      -3.29840000
C        2.65460000       0.16000000      -2.55170000
C        2.15250000      -0.67380000      -1.42470000
H        1.12420000       1.80760000       0.34340000
H       -0.31770000       2.10270000      -0.63260000
H       -0.47530000       1.82210000       1.10700000
H        0.32650000      -0.54180000       0.81740000
H       -1.12100000      -0.24860000      -0.12850000
H        1.18600000      -2.73170000      -1.16460000
H        1.00960000      -1.91520000      -3.99400000
H       -0.52320000      -2.09090000      -3.08670000
H       -0.58770000       0.39960000      -3.02850000
H        1.67400000       1.12510000      -4.22520000
H        3.70380000       0.35570000      -2.73660000
H        2.74990000      -0.83880000      -0.53430000
