17
Properties=species:S:1:pos:R:3 gdb_80605=T pbc="F F F"
C       -0.08390000       1.52920000      -0.00180000
C        0.05270000       0.00840000      -0.00240000
C        1.01050000      -0.53860000      -1.08680000
O        2.33460000      -0.39660000      -0.45910000
C        1.87900000      -1.40760000       0.50980000
C        0.79750000      -0.60160000       1.25900000
O        1.36800000       0.35100000       2.12240000
C        1.12460000      -2.02380000      -0.68810000
O        0.89420000      -3.09820000      -1.14270000
H        0.89280000       2.01950000      -0.04860000
H       -0.66380000       1.85810000      -0.86970000
H       -0.58990000       1.87730000       0.90190000
H       -0.93690000      -0.45000000      -0.10630000
H        0.95530000      -0.16440000      -2.10760000
H        2.67300000      -1.88950000       1.07650000
H        0.14180000      -1.22300000       1.87290000
H        2.05230000       0.80740000       1.61670000
