20
Properties=species:S:1:pos:R:3 gdb_77156=T pbc="F F F"
C       -0.53150000       1.21550000      -0.12520000
C        0.13680000      -0.13580000       0.07920000
C        1.00040000      -0.79670000      -1.04460000
C        2.09440000      -1.16310000       0.00210000
C        1.38310000      -0.21220000       0.97480000
O        1.71180000       0.35650000       1.97620000
N        0.38540000      -1.92550000      -1.71080000
C       -0.33820000      -1.63890000      -2.94810000
C        0.97750000      -2.33330000      -2.98310000
H        0.17790000       1.95190000      -0.51700000
H       -1.37040000       1.14460000      -0.82470000
H       -0.91290000       1.59850000       0.82600000
H       -0.58520000      -0.88610000       0.42820000
H        1.36840000      -0.03410000      -1.75220000
H        1.99880000      -2.20710000       0.31910000
H        3.14020000      -0.94790000      -0.22720000
H       -1.26020000      -2.19370000      -3.09450000
H       -0.36520000      -0.60790000      -3.29710000
H        1.82970000      -1.76640000      -3.35440000
H        1.03270000      -3.40410000      -3.15520000
