14
Properties=species:S:1:pos:R:3 gdb_130713=T pbc="F F F"
O        0.00110000      -0.04790000      -0.20720000
C        0.00610000       1.15540000      -0.07910000
N       -1.03740000       2.05640000      -0.01140000
N       -0.66510000       3.39940000       0.17390000
C        0.61700000       3.29500000       0.20200000
O        1.58360000       4.20030000       0.40270000
C        2.84380000       3.51070000       0.17890000
C        2.53320000       1.98300000       0.22130000
N        1.10200000       2.03200000       0.03200000
H       -2.01100000       1.81820000      -0.07020000
H        3.22660000       3.81230000      -0.80060000
H        3.53930000       3.83040000       0.95520000
H        3.04090000       1.43850000      -0.57770000
H        2.79760000       1.52720000       1.18140000
