21
Properties=species:S:1:pos:R:3 gdb_74920=T pbc="F F F"
C        0.07960000       1.47850000       0.02200000
C       -0.03180000      -0.01060000      -0.05580000
C       -0.08880000      -0.78830000      -1.14650000
C       -0.02460000      -2.23870000      -0.73410000
C        1.42150000      -2.50620000      -0.15340000
C        0.89290000      -2.12080000       1.21960000
C       -0.06000000      -0.89140000       1.15270000
C       -0.53950000      -2.26080000       0.75450000
C       -1.71360000      -3.00710000       1.30880000
H        1.01770000       1.78400000       0.50300000
H        0.04500000       1.93530000      -0.97090000
H       -0.73160000       1.90990000       0.62280000
H       -0.01340000      -0.44910000      -2.17340000
H       -0.40810000      -2.97520000      -1.44010000
H        1.66150000      -3.57270000      -0.18020000
H        2.24460000      -1.93200000      -0.59270000
H        1.33010000      -2.39500000       2.17350000
H       -0.34720000      -0.49470000       2.12200000
H       -2.65570000      -2.64190000       0.88250000
H       -1.64640000      -4.08060000       1.09590000
H       -1.77180000      -2.88830000       2.39620000
