16
Properties=species:S:1:pos:R:3 gdb_34379=T pbc="F F F"
C        0.03650000      -1.19140000      -0.12610000
C        0.00090000       0.00590000      -0.02520000
C       -0.00660000       1.45230000       0.06070000
C       -0.42200000       2.24820000      -1.21940000
C        0.86930000       3.11470000      -1.10050000
C        1.35630000       2.23960000       0.07650000
O        1.37210000       2.90660000       1.35220000
C        0.14090000       2.68400000       1.87860000
N       -0.69220000       1.93530000       1.28280000
H        0.05560000      -2.25050000      -0.20310000
H       -0.45460000       1.62280000      -2.11280000
H       -1.37190000       2.77370000      -1.11070000
H        1.52020000       3.10280000      -1.97670000
H        0.70120000       4.15220000      -0.80500000
H        2.29240000       1.69640000      -0.04440000
H       -0.03910000       3.18880000       2.82140000
