17
Properties=species:S:1:pos:R:3 gdb_53167=T pbc="F F F"
C        0.02890000       1.54680000       0.00980000
C        0.05870000       0.09190000       0.04310000
C        0.09050000      -1.11250000       0.06180000
C        0.08550000      -2.55920000       0.09230000
C        0.29040000      -3.29360000       1.43830000
C       -0.80940000      -2.94790000       2.36890000
C       -1.07530000      -4.01320000       1.30510000
C       -1.28070000      -3.34940000      -0.01640000
O       -2.05900000      -3.48430000      -0.91250000
H        0.61050000       1.93670000      -0.83270000
H       -0.99540000       1.92210000      -0.09230000
H        0.44850000       1.97380000       0.92750000
H        0.73810000      -2.97370000      -0.68610000
H        1.22480000      -3.73790000       1.75300000
H       -0.74130000      -3.35070000       3.37400000
H       -1.29200000      -1.97780000       2.30380000
H       -1.37550000      -5.01740000       1.57590000
