25
Properties=species:S:1:pos:R:3 gdb_99762=T pbc="F F F"
C        0.37860000       1.26230000      -0.38230000
C        0.12000000      -0.19200000       0.04290000
C        0.78500000      -0.42680000       1.41020000
C       -1.38470000      -0.58470000       0.06270000
C       -2.16820000      -0.05170000      -1.14760000
O       -2.54810000       1.29460000      -0.87400000
C       -1.55980000      -2.11380000       0.17570000
C       -2.94510000      -2.54980000       0.65970000
O       -1.26480000      -2.65180000      -1.11690000
H        1.45600000       1.46170000      -0.38350000
H       -0.00420000       1.48330000      -1.38030000
H       -0.09580000       1.96640000       0.30870000
H        0.60310000      -0.85020000      -0.69200000
H        0.33430000       0.21840000       2.17430000
H        0.70330000      -1.46030000       1.75850000
H        1.85200000      -0.18490000       1.36430000
H       -1.84800000      -0.13120000       0.94930000
H       -1.54920000      -0.12010000      -2.05280000
H       -3.05880000      -0.66800000      -1.32760000
H       -2.95150000       1.65560000      -1.66880000
H       -0.82640000      -2.49460000       0.90060000
H       -3.74020000      -2.20120000      -0.00500000
H       -3.00450000      -3.64380000       0.70740000
H       -3.14150000      -2.16570000       1.66600000
H       -1.34890000      -3.60880000      -1.06810000
