16
Properties=species:S:1:pos:R:3 gdb_54244=T pbc="F F F"
N        0.34900000       1.71160000      -0.16310000
C       -0.21460000       0.47270000      -0.53060000
C       -1.53950000      -0.26970000      -0.34010000
N       -1.04330000      -1.23530000      -1.39780000
C        0.16250000      -0.47420000      -1.41890000
N        1.27320000      -0.79610000      -2.16820000
H        1.04510000      -1.19200000      -3.07160000
H        1.92180000      -0.02370000      -2.25340000
C        1.13290000      -1.28200000       1.65820000
O        1.62680000      -0.31070000       2.06700000
O        0.65440000      -2.27910000       1.29580000
H        0.57970000       1.75270000       0.82530000
H       -0.26660000       2.49470000      -0.36450000
H       -1.71730000      -0.76230000       0.62380000
H       -2.45610000       0.24380000      -0.65380000
H       -0.91870000      -2.18030000      -1.03470000
