19
Properties=species:S:1:pos:R:3 gdb_118023=T pbc="F F F"
C        0.10230000       1.36380000      -0.09000000
O        0.10080000      -0.04460000      -0.03600000
C        0.55140000      -0.56050000       1.20390000
C        0.60450000      -2.07730000       1.03710000
O        1.39880000      -2.41820000      -0.07930000
C        1.22940000      -2.75400000       2.27350000
O        0.57150000      -2.33730000       3.46890000
C        1.23710000      -4.21050000       2.14260000
C        1.18100000      -5.40890000       2.07330000
H        1.11170000       1.77500000       0.06440000
H       -0.25220000       1.65360000      -1.08210000
H       -0.56640000       1.79780000       0.66850000
H        1.55820000      -0.17390000       1.43550000
H       -0.12260000      -0.27810000       2.02320000
H       -0.42630000      -2.45160000       0.91600000
H        1.15490000      -1.79040000      -0.77120000
H        2.26130000      -2.39170000       2.35720000
H       -0.20690000      -2.89430000       3.57870000
H        1.15490000      -6.46830000       2.00170000
