21
Properties=species:S:1:pos:R:3 gdb_31027=T pbc="F F F"
C        0.07320000       1.56550000       0.25600000
C       -0.01020000       0.08160000      -0.14290000
C       -1.39730000      -0.48580000      -0.06320000
C       -2.21080000      -0.81080000      -1.13090000
N       -2.05550000      -0.74980000      -2.53850000
N       -3.40150000      -1.28390000      -0.62270000
C       -3.37640000      -1.27320000       0.74970000
C       -4.53290000      -1.73890000       1.57120000
C       -2.14450000      -0.77950000       1.11920000
H        1.10210000       1.93610000       0.19520000
H       -0.55140000       2.18250000      -0.39840000
H       -0.28040000       1.71520000       1.28100000
H        0.36880000      -0.03770000      -1.16570000
H        0.66670000      -0.49610000       0.50010000
H       -1.77220000       0.17410000      -2.84590000
H       -1.35490000      -1.40400000      -2.87350000
H       -4.16600000      -1.57810000      -1.20670000
H       -4.78290000      -2.79060000       1.38040000
H       -4.29420000      -1.64520000       2.63330000
H       -5.44070000      -1.15100000       1.38390000
H       -1.80840000      -0.64950000       2.13840000
