15
Properties=species:S:1:pos:R:3 gdb_2719=T pbc="F F F"
O       -0.07830000       1.47710000      -0.06420000
C        0.00330000       0.07110000       0.04810000
C       -1.37480000      -0.57080000       0.04010000
O       -1.97710000      -0.23510000      -1.20040000
C       -3.31120000      -0.65530000      -1.32310000
C       -3.82820000      -0.21600000      -2.68270000
O       -4.94050000      -0.44220000      -3.07610000
H       -0.63290000       1.65090000      -0.83340000
H        0.60610000      -0.36670000      -0.76340000
H        0.50450000      -0.15010000       0.99580000
H       -1.30060000      -1.66440000       0.15340000
H       -1.97940000      -0.17670000       0.87180000
H       -3.40690000      -1.75120000      -1.24590000
H       -3.95540000      -0.22030000      -0.54050000
H       -3.07700000       0.33940000      -3.28710000
