16
Properties=species:S:1:pos:R:3 gdb_45151=T pbc="F F F"
O        0.33630000       0.06970000      -0.56380000
C        0.15070000       1.16790000      -0.13930000
C       -1.04960000       1.93540000       0.44600000
N       -0.22570000       3.18590000       0.51470000
C        0.45880000       3.35050000       1.84290000
C        1.71980000       2.67390000       1.29820000
C        3.13700000       2.91130000       1.56780000
O        2.47950000       1.70050000       1.97560000
C        0.99510000       2.45130000      -0.03490000
H       -1.88940000       2.02580000      -0.25150000
H       -1.43070000       1.56790000       1.40540000
H        0.57410000       4.40230000       2.11930000
H       -0.02150000       2.81550000       2.66940000
H        3.86680000       2.79740000       0.76770000
H        3.42650000       3.57960000       2.37760000
H        1.47110000       2.81100000      -0.95080000
