20
Properties=species:S:1:pos:R:3 gdb_88476=T pbc="F F F"
C       -0.73590000       1.00560000       0.24970000
N        0.09980000      -0.18230000       0.10790000
C        1.39400000      -0.05280000      -0.55210000
C        1.31170000      -0.35600000       0.90490000
C        1.80790000       0.61350000       1.95920000
O        1.94830000       1.90080000       1.41080000
C        1.06660000       0.48060000       3.32200000
O        2.16000000      -0.27280000       3.87860000
C        3.01280000       0.05060000       2.76430000
H       -0.17940000       1.93610000       0.41330000
H       -1.33810000       1.10840000      -0.65880000
H       -1.42630000       0.85770000       1.08740000
H        1.64860000      -0.83290000      -1.26580000
H        1.73320000       0.94630000      -0.81570000
H        1.44900000      -1.38670000       1.23060000
H        2.20080000       2.50650000       2.11600000
H        0.92410000       1.44710000       3.83030000
H        0.12490000      -0.07780000       3.33750000
H        3.53310000      -0.82700000       2.36590000
H        3.75120000       0.82760000       3.01390000
