19
Properties=species:S:1:pos:R:3 gdb_118330=T pbc="F F F"
C        0.37320000       0.96390000       0.68200000
C       -0.18900000      -0.25550000      -0.02530000
O        0.84910000      -0.81560000      -0.82900000
C        0.50820000      -1.98350000      -1.50780000
C       -0.37640000      -1.74980000      -2.74280000
O       -0.82770000      -0.67860000      -3.04520000
C        1.76800000      -2.74300000      -1.97280000
C        3.09950000      -2.07510000      -1.73930000
O        1.63270000      -3.81370000      -2.51700000
H        1.22860000       0.69080000       1.30660000
H        0.70130000       1.70990000      -0.04690000
H       -0.39240000       1.41590000       1.31940000
H       -0.52830000      -1.00840000       0.70510000
H       -1.04310000       0.01850000      -0.65420000
H       -0.04550000      -2.69550000      -0.86750000
H       -0.55370000      -2.67010000      -3.33680000
H        3.24310000      -1.88850000      -0.67090000
H        3.89630000      -2.70750000      -2.13160000
H        3.11350000      -1.09240000      -2.22210000
