18
Properties=species:S:1:pos:R:3 gdb_12637=T pbc="F F F"
C        0.12480000       1.62120000      -0.02310000
C        0.08340000       0.08870000      -0.00410000
C        0.79230000      -0.57060000      -1.16630000
C        1.53670000      -1.61240000      -0.80270000
C        1.49140000      -1.84580000       0.68400000
O        2.77390000      -2.02640000       1.28480000
C        0.74980000      -0.57380000       1.23570000
O        1.68830000       0.32070000       1.80350000
H        1.15400000       1.98380000       0.00350000
H       -0.35780000       2.00180000      -0.92960000
H       -0.39960000       2.03950000       0.84090000
H       -0.97240000      -0.21930000      -0.02350000
H        0.65730000      -0.22550000      -2.18680000
H        2.10630000      -2.25580000      -1.46470000
H        0.93760000      -2.75760000       0.93700000
H        3.36150000      -1.38300000       0.87130000
H       -0.00300000      -0.85390000       1.98630000
H        2.27360000      -0.22840000       2.34110000
