23
Properties=species:S:1:pos:R:3 gdb_70520=T pbc="F F F"
C       -0.27400000       1.47560000      -0.03630000
C       -0.08230000      -0.03020000      -0.01960000
C       -0.78490000      -0.80600000       1.07420000
C        0.71710000      -0.62710000       1.11300000
C        1.65560000      -1.79820000       0.85750000
C        2.76840000      -1.50230000      -0.13000000
C        2.66380000      -0.91470000      -1.32380000
C        1.44300000      -0.39210000      -2.04130000
C        0.07860000      -0.67510000      -1.38860000
H        0.56910000       1.98930000      -0.51210000
H       -1.18350000       1.75110000      -0.58420000
H       -0.36600000       1.87250000       0.97960000
H       -1.39310000      -0.25520000       1.78470000
H       -1.16780000      -1.79460000       0.83830000
H        1.09490000       0.08750000       1.84030000
H        2.09720000      -2.11340000       1.80960000
H        1.08020000      -2.66700000       0.51280000
H        3.76190000      -1.82500000       0.17570000
H        3.58560000      -0.78800000      -1.89140000
H        1.56490000       0.69060000      -2.19390000
H        1.44290000      -0.81210000      -3.05750000
H       -0.06060000      -1.75850000      -1.31400000
H       -0.71500000      -0.31540000      -2.05680000
