16
Properties=species:S:1:pos:R:3 gdb_39718=T pbc="F F F"
C       -0.07380000       1.50620000       0.01380000
O        1.11040000       0.68280000       0.02380000
C       -0.15300000       0.04850000       0.01260000
C       -0.48910000      -0.97800000       1.05810000
C       -1.70980000      -1.78700000       0.70190000
C       -2.67600000      -1.25390000      -0.30620000
C       -1.99090000      -0.85520000      -1.37790000
C       -0.51970000      -0.99380000      -1.06430000
N       -0.43030000      -2.08460000       0.02390000
H       -0.26110000       2.06070000       0.93220000
H       -0.24310000       2.06240000      -0.90720000
H        0.00130000      -1.05560000       2.02310000
H       -2.02640000      -2.52610000       1.43240000
H       -3.74550000      -1.20920000      -0.15000000
H       -2.37990000      -0.37490000      -2.26610000
H        0.18220000      -1.11860000      -1.88750000
