22
Properties=species:S:1:pos:R:3 gdb_63399=T pbc="F F F"
C       -0.32410000       1.50210000      -0.01970000
C        0.13010000       0.04700000      -0.00640000
C       -0.92640000      -0.87590000       0.58000000
C        0.82420000      -0.42760000      -1.30900000
C        2.13070000      -0.34920000      -0.48870000
O        1.39620000      -0.07370000       0.72570000
C        2.98760000      -1.58590000      -0.38050000
C        3.68160000      -1.89880000       0.88950000
N        2.54100000      -2.72270000       0.43480000
H        0.45790000       2.15190000      -0.42310000
H       -1.22270000       1.62240000      -0.63450000
H       -0.55520000       1.83790000       0.99620000
H       -1.85580000      -0.81020000       0.00400000
H       -0.59260000      -1.91730000       0.56880000
H       -1.14660000      -0.59540000       1.61520000
H        0.55560000      -1.44190000      -1.61140000
H        0.74720000       0.24290000      -2.16620000
H        2.76310000       0.50680000      -0.76600000
H        3.46190000      -1.86850000      -1.31970000
H        4.64680000      -2.39670000       0.87680000
H        3.51540000      -1.22660000       1.72640000
H        1.72490000      -2.41590000       0.96300000
