20
Properties=species:S:1:pos:R:3 gdb_117096=T pbc="F F F"
C       -0.66900000       1.39690000      -0.15840000
C        0.33220000       0.26260000       0.07260000
C        0.54260000      -0.59360000      -1.17700000
C        1.50540000      -1.74570000      -0.97350000
O        1.97080000      -2.04100000       0.09810000
C        1.94180000      -2.54240000      -2.24150000
C        2.65930000      -3.85320000      -1.88160000
C        0.82160000      -2.76620000      -3.15540000
N       -0.07060000      -2.95330000      -3.86660000
H       -0.33250000       2.07300000      -0.95230000
H       -1.65070000       1.00820000      -0.45070000
H       -0.80350000       1.99210000       0.74960000
H        1.29690000       0.66970000       0.39530000
H       -0.00670000      -0.38160000       0.89030000
H       -0.40850000      -1.01820000      -1.52780000
H        0.90140000       0.01150000      -2.02200000
H        2.64570000      -1.87650000      -2.76330000
H        3.05260000      -4.33250000      -2.78050000
H        3.47780000      -3.63800000      -1.19390000
H        1.97310000      -4.54400000      -1.38710000
