18
Properties=species:S:1:pos:R:3 gdb_83669=T pbc="F F F"
C        0.22880000       1.59440000      -0.24240000
C        0.11830000       0.09690000      -0.01670000
C        0.58050000      -0.84530000      -1.15790000
O        1.68760000      -0.32870000      -1.91840000
C        2.64340000      -1.09510000      -1.14230000
C        1.54230000      -1.60260000      -0.20140000
C        1.14640000      -0.62190000       0.95420000
C        2.21360000       0.17960000       1.52770000
N        3.06960000       0.82300000       1.96550000
H        1.21390000       1.85890000      -0.63230000
H       -0.52070000       1.92390000      -0.96930000
H        0.06390000       2.14570000       0.68830000
H       -0.89490000      -0.17030000       0.30000000
H       -0.18230000      -1.30450000      -1.79210000
H        3.10400000      -1.88250000      -1.75090000
H        3.42650000      -0.46920000      -0.70130000
H        1.50080000      -2.66500000       0.02900000
H        0.63340000      -1.13970000       1.76820000
