18
Properties=species:S:1:pos:R:3 gdb_67337=T pbc="F F F"
C       -0.08960000       1.53890000       0.00970000
C       -0.00040000       0.03420000       0.00780000
C        1.13580000      -0.78630000      -0.72810000
C        2.10600000      -0.50170000       0.44230000
C        0.75460000      -0.80990000       1.12340000
C        0.52610000      -1.96100000       0.08430000
N       -0.87970000      -2.04720000      -0.28610000
C       -1.30830000      -0.72620000      -0.23280000
O       -2.43440000      -0.29870000      -0.31620000
H        0.86550000       2.01350000       0.24980000
H       -0.41530000       1.90310000      -0.96970000
H       -0.83410000       1.87150000       0.73920000
H        1.33810000      -0.77850000      -1.80090000
H        2.90890000      -1.22870000       0.59880000
H        2.48550000       0.51700000       0.53190000
H        0.52020000      -0.82240000       2.19010000
H        1.04900000      -2.91220000       0.16820000
H       -1.48380000      -2.78280000       0.04820000
