16
Properties=species:S:1:pos:R:3 gdb_24443=T pbc="F F F"
C       -0.00720000       1.49590000      -0.00850000
C        1.42720000       2.04240000       0.05880000
O        2.12280000       1.67190000       1.26100000
C        1.93270000       0.36840000       1.54430000
C        1.00050000      -0.44330000       0.98800000
C       -0.03860000      -0.05340000       0.00550000
O        1.16160000      -1.68280000       1.56250000
C        2.18550000      -1.51190000       2.42990000
N        2.68940000      -0.31750000       2.46840000
H       -0.56890000       1.87920000       0.85000000
H       -0.48540000       1.88420000      -0.91280000
H        2.00760000       1.68130000      -0.80240000
H        1.43020000       3.13410000       0.04650000
H       -1.03370000      -0.41040000       0.29500000
H        0.16250000      -0.45980000      -0.99500000
H        2.48630000      -2.37620000       3.00030000
