15
Properties=species:S:1:pos:R:3 gdb_13831=T pbc="F F F"
N       -0.05750000       1.28480000       0.02630000
C        0.02770000      -0.06250000       0.08360000
O        1.05960000      -0.71150000       0.10420000
C       -1.31590000      -0.74060000       0.11060000
N       -2.43340000      -0.13290000      -0.05360000
C       -3.46920000      -1.18150000       0.03700000
C       -2.70290000      -2.53620000      -0.03360000
N       -1.35150000      -2.09550000       0.32230000
H        0.78160000       1.83210000      -0.06030000
H       -0.96860000       1.71000000      -0.04400000
H       -4.00010000      -1.07530000       0.99220000
H       -4.20860000      -1.06790000      -0.76020000
H       -3.08470000      -3.28120000       0.66910000
H       -2.73240000      -2.96830000      -1.04390000
H       -0.52640000      -2.62810000       0.09040000
