25
Properties=species:S:1:pos:R:3 gdb_100934=T pbc="F F F"
C        0.04500000       1.53030000       0.13430000
C       -0.04450000       0.00500000       0.02720000
C       -1.47640000      -0.55090000      -0.10150000
C       -2.16120000      -0.10730000      -1.40450000
C       -1.45620000      -2.08640000       0.04440000
C       -2.85830000      -2.69650000       0.11830000
O       -2.75390000      -4.00500000       0.67000000
O       -0.70980000      -2.61100000      -1.04480000
C       -0.08210000      -3.85790000      -0.81850000
H        1.07940000       1.84640000       0.30270000
H       -0.30200000       2.03000000      -0.77520000
H       -0.55590000       1.90770000       0.97010000
H        0.54620000      -0.34800000      -0.82510000
H        0.41640000      -0.43720000       0.92030000
H       -2.06110000      -0.16710000       0.74710000
H       -3.20590000      -0.43110000      -1.44430000
H       -2.15900000       0.98150000      -1.50240000
H       -1.64430000      -0.53190000      -2.26970000
H       -0.94950000      -2.33890000       0.99100000
H       -3.50050000      -2.05900000       0.74710000
H       -3.28870000      -2.72590000      -0.89200000
H       -3.61340000      -4.43020000       0.59830000
H        0.52810000      -4.06770000      -1.70150000
H        0.57600000      -3.82040000       0.06350000
H       -0.80620000      -4.66590000      -0.67100000
