18
Properties=species:S:1:pos:R:3 gdb_8655=T pbc="F F F"
C       -0.21960000       1.59190000       0.08840000
C       -0.00320000       0.07650000       0.02050000
C        0.69100000      -0.44250000      -1.26490000
C        0.00570000       0.03720000      -2.56840000
C        2.17070000      -0.01250000      -1.32490000
O        2.74730000       0.60430000      -0.47090000
C        0.73140000      -1.90780000      -1.25340000
C        0.80130000      -3.10850000      -1.24500000
H        0.72480000       2.13320000      -0.00130000
H       -0.90070000       1.94710000      -0.69090000
H       -0.66510000       1.85630000       1.05230000
H        0.60430000      -0.24200000       0.87270000
H       -0.96470000      -0.44080000       0.10820000
H        0.02300000       1.12750000      -2.64160000
H        0.51100000      -0.37760000      -3.44510000
H       -1.03420000      -0.29890000      -2.58900000
H        2.68610000      -0.34240000      -2.25450000
H        0.84810000      -4.16950000      -1.23200000
