19
Properties=species:S:1:pos:R:3 gdb_86358=T pbc="F F F"
O       -0.07400000       1.42040000       0.01800000
C        0.00550000      -0.00520000       0.00990000
C        0.25180000      -0.56820000       1.43670000
C       -1.29110000      -0.54480000       1.65380000
O       -1.76760000       0.63290000       2.26630000
C       -1.43760000      -0.56680000       0.09680000
C       -2.59450000       0.18610000      -0.56440000
C       -2.57060000       0.07950000      -2.01860000
C       -2.52790000      -0.03110000      -3.21490000
H        0.81620000       1.76860000       0.13420000
H        0.64240000      -0.35440000      -0.81030000
H        0.65560000      -1.58440000       1.41650000
H        0.84670000       0.04820000       2.11650000
H       -1.73620000      -1.37830000       2.20210000
H       -1.34200000       1.37080000       1.80910000
H       -1.42540000      -1.60530000      -0.24830000
H       -3.54090000      -0.21330000      -0.17810000
H       -2.56400000       1.23940000      -0.27130000
H       -2.50510000      -0.11420000      -4.27290000
