21
Properties=species:S:1:pos:R:3 gdb_114130=T pbc="F F F"
C        0.05660000       1.27520000       0.13630000
O       -0.30170000      -0.04610000      -0.19790000
C        0.48640000      -0.59190000      -1.22460000
C        1.94720000      -1.06440000      -0.86850000
C        1.51730000      -2.48300000      -1.26700000
C        0.36340000      -2.94350000      -0.42300000
C        0.10850000      -2.01840000      -1.59790000
O        2.28760000      -3.34900000      -2.01070000
C        3.26050000      -4.03520000      -1.24100000
H        1.09070000       1.34240000       0.50720000
H       -0.04250000       1.95390000      -0.72580000
H       -0.62180000       1.60740000       0.92590000
H        0.49310000       0.07970000      -2.09540000
H        2.69650000      -0.64430000      -1.54330000
H        2.26200000      -0.91950000       0.16970000
H        0.06300000      -3.97010000      -0.60550000
H        0.21530000      -2.59020000       0.59320000
H       -0.54040000      -2.30400000      -2.41590000
H        3.98090000      -3.34160000      -0.78440000
H        2.79420000      -4.62960000      -0.44290000
H        3.79440000      -4.70160000      -1.92210000
