15
Properties=species:S:1:pos:R:3 gdb_21038=T pbc="F F F"
C        0.11840000       1.32700000       0.01590000
N       -0.02640000      -0.10770000      -0.00470000
N        0.10760000      -0.81910000      -1.12890000
C        0.08040000      -2.08120000      -0.71120000
N        0.22300000      -3.19140000      -1.54830000
C       -0.05390000      -2.08610000       0.69540000
N       -0.19910000      -3.20100000       1.52500000
N       -0.10870000      -0.82740000       1.11940000
H        1.16740000       1.62550000       0.13130000
H       -0.26530000       1.72620000      -0.92370000
H       -0.45870000       1.72000000       0.85380000
H       -0.49680000      -3.88640000      -1.38250000
H        0.21010000      -2.91730000      -2.52320000
H        0.50430000      -3.90650000       1.33680000
H       -0.16460000      -2.93750000       2.50230000
