20
Properties=species:S:1:pos:R:3 gdb_52812=T pbc="F F F"
C       -0.03180000       1.49950000      -0.05120000
C       -0.01260000       0.04390000      -0.02530000
C       -0.01020000      -1.16030000       0.00760000
C        0.01240000      -2.61490000       0.02200000
C        0.93810000      -3.16940000      -1.06990000
C        0.27920000      -3.31680000       1.42340000
C       -1.06950000      -4.02510000       1.28380000
N       -2.08810000      -2.94710000       1.23110000
C       -1.36190000      -3.33060000       0.00340000
H        0.98300000       1.91340000      -0.05960000
H       -0.54760000       1.87590000      -0.94190000
H       -0.54810000       1.90650000       0.82550000
H        1.96780000      -2.83910000      -0.90470000
H        0.92020000      -4.26450000      -1.07020000
H        0.62430000      -2.81940000      -2.05830000
H        1.14410000      -3.98240000       1.38100000
H        0.36010000      -2.64720000       2.28100000
H       -1.33410000      -5.02300000       1.61040000
H       -3.00250000      -3.39690000       1.18520000
H       -1.89090000      -3.66430000      -0.88210000
