17
Properties=species:S:1:pos:R:3 gdb_56427=T pbc="F F F"
C        0.02630000       1.53260000      -0.20080000
C       -0.03280000       0.00100000       0.05400000
C        0.69160000      -0.37550000       1.25900000
C        1.30140000      -0.67030000       2.25080000
C       -1.50470000      -0.42110000       0.11680000
O       -2.13240000      -0.57860000       1.13330000
C       -2.20360000      -0.62050000      -1.25570000
C       -3.67310000      -0.95100000      -1.20100000
O       -1.56590000      -0.51610000      -2.27770000
H        1.06890000       1.84830000      -0.27670000
H       -0.48270000       1.78250000      -1.13460000
H       -0.44080000       2.07500000       0.62500000
H        0.40400000      -0.49140000      -0.82160000
H        1.83770000      -0.94020000       3.12660000
H       -3.83040000      -1.85850000      -0.61000000
H       -4.21680000      -0.15460000      -0.68270000
H       -4.05890000      -1.08050000      -2.21220000
