21
Properties=species:S:1:pos:R:3 gdb_90882=T pbc="F F F"
O        0.05410000       1.48080000       0.09710000
C        0.04110000       0.06960000       0.02600000
C        0.40880000      -0.75120000       1.30650000
C       -0.98510000      -1.44190000       1.25550000
C       -2.08170000      -0.99740000       2.24330000
C       -3.32900000      -0.99850000       1.30200000
C       -2.57530000       0.20260000       0.63910000
C       -2.11680000       0.55030000       2.08310000
C       -1.38100000      -0.55050000       0.02210000
H        0.97140000       1.77020000       0.12740000
H        0.62120000      -0.27270000      -0.84280000
H        1.25940000      -1.42570000       1.17700000
H        0.58550000      -0.13700000       2.19360000
H       -0.96160000      -2.52370000       1.11020000
H       -2.09770000      -1.47180000       3.22580000
H       -3.51620000      -1.89090000       0.69560000
H       -4.24450000      -0.68960000       1.81190000
H       -3.08770000       0.93220000       0.01280000
H       -2.92830000       0.99390000       2.66500000
H       -1.20670000       1.13430000       2.21110000
H       -1.65580000      -1.04750000      -0.91100000
