16
Properties=species:S:1:pos:R:3 gdb_123544=T pbc="F F F"
C       -0.04210000       1.57990000      -0.05130000
C        1.52230000       1.36060000      -0.00730000
C        1.18210000       0.17380000       0.97920000
C       -0.06980000       0.00700000       0.03720000
C        0.63660000      -0.33900000      -1.27410000
C        1.66300000       0.55140000      -1.27870000
O        2.43480000       0.44170000      -2.34550000
N        1.89350000      -0.60900000      -3.13650000
C        0.83280000      -1.04800000      -2.47460000
H       -0.41740000       2.06750000       0.85340000
H       -0.46070000       2.04390000      -0.94670000
H        2.22820000       2.15130000       0.23300000
H        1.89000000      -0.65590000       1.03190000
H        0.92170000       0.52950000       1.98050000
H       -0.95750000      -0.53980000       0.34580000
H        0.27090000      -1.86000000      -2.91490000
