15
Properties=species:S:1:pos:R:3 gdb_84187=T pbc="F F F"
C       -0.07140000       1.56470000       0.01540000
C        0.04240000       0.03840000      -0.01800000
N        0.81190000      -0.44530000      -1.17060000
C        1.76510000      -1.16080000      -0.69260000
N        1.78790000      -1.26840000       0.70200000
C        0.74080000      -0.52380000       1.23220000
O        0.48070000      -0.37190000       2.39940000
C        2.76110000      -1.82850000      -1.46050000
C        3.61920000      -2.40660000      -2.07200000
H        0.92020000       2.02590000       0.02700000
H       -0.60680000       1.92090000      -0.86730000
H       -0.60920000       1.87070000       0.91640000
H       -0.96620000      -0.39350000      -0.06840000
H        2.47650000      -1.76240000       1.24650000
H        4.36920000      -2.91180000      -2.63030000
