23
Properties=species:S:1:pos:R:3 gdb_102171=T pbc="F F F"
C       -0.99050000       1.05550000       0.25190000
O        0.20430000       0.35740000      -0.03360000
C        0.74780000      -0.40910000       1.02600000
C        0.03570000      -1.78400000       1.17120000
C       -1.21740000      -1.74830000       1.91530000
C       -2.23530000      -1.72470000       2.55560000
C        2.25730000      -0.56700000       0.74980000
C        2.54090000      -1.29410000      -0.57330000
C        2.95150000       0.80080000       0.78560000
H       -0.88810000       1.67510000       1.15580000
H       -1.18570000       1.70860000      -0.60300000
H       -1.84530000       0.38350000       0.39200000
H        0.62770000       0.13840000       1.97440000
H       -0.13670000      -2.18520000       0.16620000
H        0.71930000      -2.47960000       1.67430000
H       -3.13890000      -1.70500000       3.11260000
H        2.65760000      -1.17460000       1.57310000
H        2.09730000      -0.75060000      -1.41210000
H        3.61930000      -1.36600000      -0.74540000
H        2.13970000      -2.31230000      -0.57950000
H        2.79840000       1.30070000       1.74840000
H        4.02990000       0.69410000       0.63120000
H        2.55480000       1.45110000       0.00120000
