18
Properties=species:S:1:pos:R:3 gdb_55932=T pbc="F F F"
N       -0.12420000       1.29120000       0.26830000
C        0.07190000      -0.05220000       0.12500000
O        1.17580000      -0.55900000       0.19460000
C       -1.19600000      -0.85720000      -0.15490000
C       -0.97790000      -2.34960000       0.03890000
C       -0.76360000      -2.89240000       1.50210000
C       -2.01450000      -3.75750000       1.31240000
O       -3.10280000      -2.86870000       1.01800000
C       -2.22500000      -3.24740000      -0.05120000
H        0.67460000       1.87600000       0.44990000
H       -1.03890000       1.70620000       0.25810000
H       -2.01580000      -0.51640000       0.48710000
H       -1.50260000      -0.64950000      -1.18970000
H       -0.17460000      -2.70190000      -0.61090000
H        0.16190000      -3.46230000       1.59910000
H       -0.82740000      -2.16240000       2.31300000
H       -2.26870000      -4.71400000       1.75410000
H       -2.68050000      -3.70540000      -0.92250000
