19
Properties=species:S:1:pos:R:3 gdb_126749=T pbc="F F F"
C        0.04360000       1.48930000       0.08080000
C       -0.06050000      -0.02310000      -0.11640000
N        0.72780000      -0.49290000      -1.23950000
C        1.81790000      -1.27330000      -1.25800000
N        2.25410000      -1.45460000      -2.49360000
C        1.35940000      -0.72750000      -3.22510000
N        1.46050000      -0.58380000      -4.58830000
C        2.17800000      -1.58500000      -5.35970000
N        0.40420000      -0.12770000      -2.51680000
H        1.07450000       1.78480000       0.29670000
H       -0.28250000       2.00890000      -0.82270000
H       -0.59010000       1.80330000       0.91540000
H        0.29460000      -0.56090000       0.76790000
H       -1.10210000      -0.31410000      -0.28760000
H        2.25550000      -1.68900000      -0.36200000
H        0.60990000      -0.23800000      -5.00640000
H        2.27620000      -1.23290000      -6.38970000
H        3.17650000      -1.71440000      -4.93870000
H        1.68650000      -2.56960000      -5.36860000
