19
Properties=species:S:1:pos:R:3 gdb_34410=T pbc="F F F"
N        0.00220000      -1.14760000      -0.45730000
C        0.00660000      -0.01660000      -0.21810000
C       -0.02310000       1.41690000       0.07600000
C       -0.45050000       2.32330000      -1.11860000
C        0.87960000       3.08380000      -0.91270000
N        1.33110000       2.07230000       0.08510000
C        1.56470000       2.57070000       1.44350000
C        0.17010000       2.84670000       2.04410000
C       -0.68310000       1.70720000       1.45530000
H       -0.52980000       1.79040000      -2.06610000
H       -1.36550000       2.89340000      -0.94970000
H        1.54070000       3.14450000      -1.78160000
H        0.75610000       4.09210000      -0.49870000
H        2.08430000       1.79700000       2.02170000
H        2.21270000       3.45110000       1.41200000
H        0.16530000       2.84920000       3.13690000
H       -0.20380000       3.82190000       1.71350000
H       -1.74120000       1.95820000       1.34940000
H       -0.61750000       0.81640000       2.08630000
