19
Properties=species:S:1:pos:R:3 gdb_93137=T pbc="F F F"
C        0.20160000       1.58350000      -0.00170000
C        0.06300000       0.06480000      -0.02740000
O        0.84320000      -0.36580000      -1.14880000
C        0.93460000      -1.66460000      -1.53120000
N        0.70290000      -2.77110000      -0.97960000
C        0.28620000      -3.03280000       0.38060000
C        0.58460000      -2.02580000       1.47570000
N        1.79870000      -1.20130000       1.36130000
C        0.47750000      -0.56250000       1.29170000
H        1.23940000       1.86290000       0.20240000
H       -0.08940000       2.00820000      -0.96530000
H       -0.43760000       2.01240000       0.77570000
H       -0.98670000      -0.20240000      -0.22200000
H        1.30740000      -1.66880000      -2.55680000
H       -0.79550000      -3.23550000       0.38560000
H        0.75500000      -3.98390000       0.66660000
H        0.33050000      -2.40310000       2.46690000
H        2.22460000      -1.05350000       2.27130000
H        0.14220000       0.01390000       2.15310000
