15
Properties=species:S:1:pos:R:3 gdb_8780=T pbc="F F F"
C       -0.09370000       1.42190000       0.03620000
N       -0.02300000      -0.02880000       0.01020000
C        0.58400000      -0.58880000      -0.95500000
N        1.15360000       0.00370000      -2.07450000
C        0.58340000      -2.11590000      -1.01110000
O       -0.28840000      -2.61050000      -2.00920000
C        1.96070000      -2.62600000      -1.21780000
N        3.04070000      -2.98140000      -1.42710000
H        0.88450000       1.90530000      -0.12200000
H       -0.78290000       1.80610000      -0.72960000
H       -0.46820000       1.74660000       1.00950000
H        1.24840000       1.00790000      -2.05000000
H        1.96930000      -0.45810000      -2.45530000
H        0.20770000      -2.47090000      -0.05030000
H       -0.12530000      -2.10860000      -2.81710000
