18
Properties=species:S:1:pos:R:3 gdb_117012=T pbc="F F F"
C        0.06310000       1.51230000      -0.16530000
C        0.01460000       0.00250000      -0.02720000
O        0.67470000      -0.55310000      -1.17770000
C        0.73350000      -1.89530000      -1.23910000
N        0.23540000      -2.64050000      -0.33340000
C        1.41040000      -2.34580000      -2.42320000
C        1.96780000      -2.78540000      -3.39650000
C        2.64870000      -3.28180000      -4.58420000
O        2.63100000      -4.70150000      -4.58750000
H        1.09660000       1.86780000      -0.20440000
H       -0.44690000       1.83730000      -1.07650000
H       -0.43070000       1.97900000       0.69230000
H        0.52210000      -0.34630000       0.87820000
H       -1.01200000      -0.37620000       0.01270000
H        0.38250000      -3.62090000      -0.56180000
H        2.14820000      -2.86820000      -5.47510000
H        3.67890000      -2.88930000      -4.58850000
H        3.08630000      -4.99360000      -5.38380000
