17
Properties=species:S:1:pos:R:3 gdb_110549=T pbc="F F F"
C       -0.09310000       1.36250000      -0.03090000
O        0.15960000      -0.02250000       0.07400000
C        0.71860000      -0.58390000      -1.07990000
C        1.04530000      -2.05110000      -0.87610000
C       -0.23250000      -2.77240000      -1.29160000
O       -1.18000000      -1.80270000      -1.69850000
C       -0.27920000      -0.86250000      -2.25230000
O        0.52970000      -1.60510000      -3.15880000
C        0.90870000      -2.64600000      -2.26830000
H        0.82050000       1.92280000      -0.28350000
H       -0.85920000       1.59180000      -0.78590000
H       -0.45500000       1.69680000       0.94380000
H        1.57640000       0.00000000      -1.44370000
H        1.72770000      -2.41150000      -0.12080000
H       -0.64140000      -3.67450000      -0.86300000
H       -0.80140000      -0.05270000      -2.75280000
H        1.50070000      -3.43660000      -2.70410000
