21
Properties=species:S:1:pos:R:3 gdb_62953=T pbc="F F F"
C       -0.03670000       1.54980000      -0.05430000
C       -0.01600000       0.02660000       0.00460000
C       -1.39500000      -0.58740000      -0.22810000
C        1.06300000      -0.65220000      -0.88280000
O        2.34990000      -0.18720000      -0.47070000
C        1.73160000      -1.24710000       0.28300000
C        0.73820000      -0.60770000       1.22770000
C        1.01840000      -0.03420000       2.58230000
C        0.13270000      -1.25220000       2.43920000
H        0.97600000       1.94750000       0.04410000
H       -0.45810000       1.90060000      -1.00340000
H       -0.65120000       1.96640000       0.75220000
H       -1.79520000      -0.28230000      -1.20190000
H       -1.35630000      -1.68130000      -0.20460000
H       -2.10660000      -0.26080000       0.53780000
H        0.96040000      -1.01050000      -1.90190000
H        2.28970000      -2.17070000       0.39050000
H        2.01230000      -0.15940000       2.99930000
H        0.54320000       0.90640000       2.84230000
H       -0.93250000      -1.13310000       2.60940000
H        0.52450000      -2.21380000       2.75660000
