23
Properties=species:S:1:pos:R:3 gdb_118244=T pbc="F F F"
C        0.24570000       1.36060000      -0.12710000
C        0.09760000      -0.14250000       0.04570000
O       -1.27850000      -0.46280000      -0.02030000
C       -1.58590000      -1.85280000      -0.01610000
C       -1.45670000      -2.46490000       1.38130000
C       -3.01050000      -1.98220000      -0.56310000
C       -3.14960000      -1.45300000      -1.97050000
C       -3.05920000      -2.33010000      -3.14560000
O       -4.32290000      -1.84810000      -2.68730000
H        1.30030000       1.64800000      -0.07990000
H       -0.15960000       1.67890000      -1.09190000
H       -0.29430000       1.89150000       0.66200000
H        0.64810000      -0.67890000      -0.74560000
H        0.53140000      -0.45510000       1.00820000
H       -0.89330000      -2.37200000      -0.70150000
H       -1.71020000      -3.52960000       1.35900000
H       -0.43770000      -2.37530000       1.76750000
H       -2.13390000      -1.96150000       2.07860000
H       -3.31910000      -3.03290000      -0.54200000
H       -3.68880000      -1.43020000       0.09950000
H       -2.88140000      -0.40560000      -2.09800000
H       -2.72310000      -1.93000000      -4.10150000
H       -2.88950000      -3.39810000      -3.00790000
