19
Properties=species:S:1:pos:R:3 gdb_90935=T pbc="F F F"
C       -0.10370000       1.57720000      -0.05100000
C        0.03950000       0.06850000       0.04420000
O        0.81410000      -0.40940000      -1.07820000
C        1.48190000      -1.57160000      -0.64110000
C        2.55850000      -1.44290000       0.44610000
C        2.30870000      -0.14660000       1.21330000
C        0.78420000      -0.50590000       1.25570000
C        1.15690000      -1.94190000       0.76120000
O        0.74900000      -3.15620000       1.26910000
H        0.86530000       2.07720000       0.02410000
H       -0.55560000       1.85310000      -1.00800000
H       -0.75030000       1.94670000       0.75140000
H       -0.96540000      -0.38980000       0.00020000
H        1.62480000      -2.32400000      -1.40790000
H        3.48690000      -1.99860000       0.37930000
H        2.75560000      -0.17090000       2.20960000
H        2.58460000       0.78740000       0.71590000
H        0.27070000      -0.40350000       2.21100000
H       -0.07210000      -3.41150000       0.83380000
