14
Properties=species:S:1:pos:R:3 gdb_29013=T pbc="F F F"
N        0.25250000       1.26550000       0.38740000
C        0.13910000      -0.06090000       0.15640000
C       -1.11090000      -0.72740000       0.15500000
N       -1.23630000      -2.02000000      -0.06520000
C       -0.10510000      -2.71460000      -0.29720000
N        1.11540000      -2.21390000      -0.32400000
C        1.25320000      -0.89540000      -0.10060000
C        2.62650000      -0.37460000      -0.14080000
O        2.93180000       0.79240000       0.03740000
H        1.17460000       1.67750000       0.36410000
H       -0.56190000       1.83000000       0.55280000
H       -2.02250000      -0.16000000       0.34330000
H       -0.21660000      -3.77920000      -0.47740000
H        3.38610000      -1.15110000      -0.35330000
