19
Properties=species:S:1:pos:R:3 gdb_107578=T pbc="F F F"
C        0.27810000       1.50590000      -0.23680000
C       -0.14390000       0.06840000       0.09280000
C        0.59250000      -0.51010000       1.28190000
C        2.02790000      -1.00180000       1.16030000
C        0.93540000      -1.96880000       1.49790000
C        0.73000000      -2.23310000       2.97760000
O        0.51510000      -0.95050000       3.58990000
C        0.27770000       0.01730000       2.65290000
O       -0.13200000       1.10220000       2.95670000
H        1.34360000       1.55410000      -0.48510000
H       -0.28530000       1.88730000      -1.09360000
H        0.09760000       2.16030000       0.61850000
H       -1.22200000       0.03760000       0.29060000
H        0.03180000      -0.58180000      -0.77300000
H        2.42660000      -1.03170000       0.15190000
H        2.74970000      -0.73040000       1.92470000
H        0.64220000      -2.73020000       0.78540000
H       -0.15260000      -2.85670000       3.15990000
H        1.59380000      -2.69640000       3.46470000
