25
Properties=species:S:1:pos:R:3 gdb_121122=T pbc="F F F"
C        0.18240000       1.39500000      -0.00360000
O        0.04560000      -0.00410000       0.01140000
C        0.68620000      -0.60990000       1.11410000
C        0.50540000      -2.11980000       1.02780000
C        1.21960000      -2.75130000      -0.20640000
C        2.34800000      -3.62470000       0.37120000
C        1.78910000      -4.10910000       1.72010000
C        2.81860000      -4.72710000       2.66330000
C        1.10320000      -2.84120000       2.26440000
H        1.23880000       1.70390000      -0.06020000
H       -0.34110000       1.76800000      -0.88760000
H       -0.25940000       1.86010000       0.89250000
H        1.76260000      -0.35720000       1.11650000
H        0.26450000      -0.22540000       2.05980000
H       -0.57120000      -2.30800000       0.96450000
H        0.51490000      -3.37490000      -0.76600000
H        1.57670000      -1.98650000      -0.90080000
H        2.64050000      -4.44400000      -0.29300000
H        3.24810000      -3.02120000       0.55220000
H        1.00960000      -4.85700000       1.51240000
H        3.61910000      -4.01250000       2.88970000
H        2.36330000      -5.02740000       3.61340000
H        3.28190000      -5.61630000       2.22250000
H        1.86360000      -2.20350000       2.73810000
H        0.35330000      -3.05790000       3.03120000
