17
Properties=species:S:1:pos:R:3 gdb_28802=T pbc="F F F"
O        0.12070000       1.31270000       0.19840000
C        0.11530000      -0.02600000       0.04990000
N        0.15050000      -0.69270000      -1.07610000
C        0.12760000      -2.03370000      -0.70170000
C        0.08420000      -2.14240000       0.65720000
C        0.00370000      -3.08490000       1.81990000
C        0.38890000      -2.16360000       3.01630000
C        0.00340000      -0.72630000       2.57920000
N        0.08270000      -0.83570000       1.13220000
H        0.16250000       1.67730000      -0.69460000
H        0.14970000      -2.81570000      -1.44430000
H       -1.01170000      -3.48280000       1.94700000
H        0.67500000      -3.94350000       1.73560000
H       -0.09800000      -2.45210000       3.95030000
H        1.47010000      -2.20960000       3.17600000
H       -1.01360000      -0.45940000       2.89170000
H        0.68700000       0.03570000       2.96100000
