17
Properties=species:S:1:pos:R:3 gdb_10543=T pbc="F F F"
C       -0.14050000       1.50790000       0.02510000
C       -0.07330000       0.00830000       0.24650000
O       -1.29710000      -0.56020000      -0.23030000
C       -1.39130000      -1.93610000      -0.07620000
C       -1.80490000      -2.49470000       1.27740000
C       -2.78380000      -2.47310000       0.13430000
C       -0.46560000      -2.71270000      -0.87920000
N        0.28810000      -3.31510000      -1.51730000
H        0.78110000       1.98110000       0.37630000
H       -0.26370000       1.73400000      -1.03750000
H       -0.98350000       1.94250000       0.56980000
H        0.77490000      -0.43110000      -0.29660000
H        0.05350000      -0.23070000       1.31250000
H       -1.38860000      -3.44370000       1.59330000
H       -1.93010000      -1.75600000       2.06050000
H       -3.56080000      -1.71810000       0.14610000
H       -3.04610000      -3.40670000      -0.34810000
