16
Properties=species:S:1:pos:R:3 gdb_24099=T pbc="F F F"
N       -0.07970000      -1.13760000      -0.05490000
C       -0.02040000       0.01530000      -0.02320000
C        0.05270000       1.47580000       0.04430000
N        1.40870000       1.94190000      -0.18010000
C        1.60560000       3.32860000      -0.05650000
C        0.64060000       4.31580000      -0.00990000
N        1.29880000       5.52810000       0.04790000
C        2.64860000       5.32540000       0.05290000
C        2.87810000       3.97120000      -0.01530000
H       -0.59840000       1.88990000      -0.73660000
H       -0.37330000       1.80120000       1.01100000
H        2.08470000       1.40700000       0.34900000
H       -0.43490000       4.26830000      -0.02030000
H        0.84640000       6.42310000       0.09000000
H        3.33810000       6.15270000       0.09950000
H        3.84160000       3.48580000      -0.04200000
