16
Properties=species:S:1:pos:R:3 gdb_50923=T pbc="F F F"
O        0.02410000       0.60330000       1.16170000
C       -0.01450000       1.38730000       0.23810000
N        1.06850000       1.76200000      -0.50080000
C        2.38840000       1.20560000      -0.22790000
C        3.05950000       0.88240000      -1.49700000
N        3.59100000       0.65530000      -2.49710000
C        3.25250000       2.11340000       0.64070000
C        3.09560000       2.02850000       2.11300000
N        4.32340000       1.54170000       1.46020000
H       -0.94190000       1.88140000      -0.10490000
H        0.95600000       2.41790000      -1.25760000
H        2.20630000       0.27350000       0.32070000
H        3.50480000       3.06490000       0.17770000
H        3.22540000       2.92040000       2.71840000
H        2.37590000       1.31060000       2.49580000
H        4.32000000       0.52540000       1.40450000
