17
Properties=species:S:1:pos:R:3 gdb_56602=T pbc="F F F"
N       -0.96990000       1.50730000      -1.46310000
C       -0.20970000       0.80530000      -0.42690000
C       -1.25210000      -0.04300000       0.34740000
O       -1.82120000      -1.05170000      -0.45440000
C       -0.72370000      -0.57610000       1.62300000
N       -0.31780000      -0.99140000       2.62250000
C        0.97160000       0.01160000      -0.98740000
C        1.70310000      -1.07910000      -0.32740000
O        0.75390000      -1.35870000      -1.37450000
H       -0.34860000       2.04050000      -2.06330000
H       -1.44000000       0.82070000      -2.04740000
H        0.19490000       1.55650000       0.26400000
H       -2.06610000       0.64310000       0.60370000
H       -1.07860000      -1.56190000      -0.81970000
H        1.52630000       0.57780000      -1.73910000
H        2.74020000      -1.25530000      -0.60610000
H        1.42050000      -1.42000000       0.66290000
