15
Properties=species:S:1:pos:R:3 gdb_127172=T pbc="F F F"
C        0.06260000       1.48140000      -0.01760000
N        0.00610000       0.02340000       0.00110000
C       -0.04790000      -0.66400000       1.20760000
N       -0.05010000      -0.05390000       2.32270000
C        0.00680000      -0.66120000      -1.19350000
N       -0.04160000      -1.96960000      -1.29990000
O       -0.02070000      -2.22410000      -2.65240000
N        0.04000000      -1.07840000      -3.37580000
C        0.05820000      -0.10520000      -2.51040000
H        0.98010000       1.82930000      -0.50390000
H       -0.80320000       1.89800000      -0.54310000
H        0.05280000       1.81830000       1.01720000
H       -0.08590000      -1.74480000       1.06090000
H       -0.09320000      -0.72150000       3.08880000
H        0.10510000       0.92320000      -2.82880000
