16
Properties=species:S:1:pos:R:3 gdb_12742=T pbc="F F F"
O        0.34500000       1.17420000      -0.56040000
C        0.05550000      -0.09390000      -0.02980000
C        0.16190000      -0.33380000       1.51260000
C       -1.30050000      -0.82430000       1.52650000
O       -2.21580000       0.26650000       1.77960000
C       -2.47100000       0.46280000       0.36780000
C       -1.42400000      -0.60020000      -0.00900000
O       -1.78240000      -1.61450000      -0.89430000
H       -0.02500000       1.84070000       0.02820000
H        0.66840000      -0.80450000      -0.59310000
H        0.90990000      -1.08040000       1.78990000
H        0.31500000       0.56680000       2.11300000
H       -1.56860000      -1.74260000       2.05160000
H       -3.48870000       0.16130000       0.09160000
H       -2.29720000       1.49740000       0.04490000
H       -1.51430000      -1.35130000      -1.78200000
