21
Properties=species:S:1:pos:R:3 gdb_119415=T pbc="F F F"
C       -0.21120000       1.44980000       0.21970000
C        0.17090000       0.01640000       0.04250000
C        0.54690000      -0.71950000      -1.25670000
C        1.39050000      -1.72000000      -0.39450000
C        0.97070000      -0.92550000       0.85740000
C        1.68390000      -0.78680000       2.16520000
C        1.56880000      -2.04190000       3.02870000
O        2.30790000      -1.80970000       4.21810000
O       -0.47210000      -0.96300000       0.87820000
H        0.50740000       2.10860000      -0.27870000
H       -1.19960000       1.64230000      -0.21350000
H       -0.25160000       1.71160000       1.28040000
H       -0.29840000      -1.13570000      -1.81030000
H        1.16480000      -0.12070000      -1.93090000
H        1.07470000      -2.76610000      -0.40770000
H        2.46130000      -1.65960000      -0.60590000
H        2.74570000      -0.57870000       1.98710000
H        1.27330000       0.06100000       2.72350000
H        0.50750000      -2.23750000       3.24120000
H        1.96180000      -2.91190000       2.47810000
H        2.20430000      -2.57560000       4.79000000
