17
Properties=species:S:1:pos:R:3 gdb_80969=T pbc="F F F"
O        0.18440000       1.34100000       0.10720000
C        0.06590000      -0.06060000       0.07250000
C       -0.18170000      -0.84970000       1.40360000
C       -1.55860000      -0.12810000       1.50210000
C       -1.39880000      -0.55970000       0.00350000
O       -2.29380000      -0.44010000      -1.03610000
C       -0.89200000      -1.94120000       0.54840000
C       -0.12890000      -2.88130000      -0.34170000
O        1.06450000      -2.86800000      -0.52700000
H        1.11780000       1.56340000       0.16750000
H        0.77710000      -0.51100000      -0.62160000
H        0.52870000      -1.03220000       2.20520000
H       -2.34010000      -0.63940000       2.06880000
H       -1.52680000       0.94090000       1.70390000
H       -2.31220000       0.48590000      -1.30500000
H       -1.68430000      -2.49420000       1.06460000
H       -0.76900000      -3.64500000      -0.83990000
