18
Properties=species:S:1:pos:R:3 gdb_51544=T pbc="F F F"
N       -0.10890000       1.27220000       0.11100000
C       -0.20590000       0.03330000       0.32150000
O       -0.85870000      -0.74880000      -0.57020000
C       -0.87900000      -2.12550000      -0.28640000
C       -1.86410000      -2.65240000       0.73280000
C       -2.09640000      -2.84990000      -0.73780000
C       -3.21120000      -2.29810000      -1.61900000
O       -3.22770000      -3.52330000      -2.38950000
C       -2.20540000      -4.12390000      -1.56740000
H        0.40450000       1.71440000       0.87060000
H        0.18810000      -0.52490000       1.18070000
H        0.08950000      -2.61310000      -0.38430000
H       -1.56880000      -3.50430000       1.33770000
H       -2.48950000      -1.92430000       1.24010000
H       -4.16960000      -2.11730000      -1.11610000
H       -2.94520000      -1.42580000      -2.22590000
H       -1.31520000      -4.40120000      -2.14720000
H       -2.57570000      -5.00700000      -1.02970000
