19
Properties=species:S:1:pos:R:3 gdb_99220=T pbc="F F F"
C        0.17290000       1.46700000       0.25700000
C       -0.14830000       0.04270000      -0.19770000
C        0.67690000      -0.37100000      -1.41420000
O        1.06720000       0.42420000      -2.25470000
N        0.93340000      -1.70250000      -1.51270000
C        1.60320000      -2.26050000      -2.65650000
C        1.52880000      -3.78530000      -2.56880000
N        2.12010000      -4.44290000      -3.59880000
O        0.98480000      -4.35570000      -1.64030000
H        1.19270000       1.53550000       0.64780000
H        0.09650000       2.15390000      -0.58820000
H       -0.51560000       1.78970000       1.04290000
H       -0.00810000      -0.67670000       0.61700000
H       -1.20470000      -0.02610000      -0.49050000
H        0.57070000      -2.38130000      -0.85780000
H        1.14280000      -1.91170000      -3.59020000
H        2.65560000      -1.94730000      -2.70050000
H        2.55100000      -3.96100000      -4.36840000
H        2.09940000      -5.44910000      -3.60390000
