22
Properties=species:S:1:pos:R:3 gdb_120006=T pbc="F F F"
C       -0.11130000       1.56160000       0.20050000
C        0.00610000       0.03810000       0.11260000
C        0.53680000      -0.43850000      -1.24630000
C        0.68210000      -1.95880000      -1.31000000
C        1.31010000      -2.64910000      -2.55630000
C        1.87550000      -1.81620000      -3.68520000
O        2.37370000      -3.20110000      -1.70040000
C        1.86020000      -2.58000000      -0.58430000
N        2.27890000      -2.55810000       0.59950000
H        0.86370000       2.04240000       0.06360000
H       -0.78500000       1.95580000      -0.56900000
H       -0.50030000       1.87350000       1.17460000
H        0.66800000      -0.33660000       0.90080000
H       -0.97640000      -0.41820000       0.29350000
H       -0.14130000      -0.10940000      -2.04530000
H        1.50430000       0.03890000      -1.44260000
H       -0.26180000      -2.43050000      -1.01740000
H        0.70650000      -3.47450000      -2.94740000
H        2.51320000      -1.01160000      -3.31080000
H        2.47340000      -2.44480000      -4.35180000
H        1.06440000      -1.37390000      -4.27310000
H        3.13780000      -3.10250000       0.69890000
