23
Properties=species:S:1:pos:R:3 gdb_101659=T pbc="F F F"
C       -0.39900000       1.47660000      -0.20460000
C        0.40100000       0.17720000      -0.09420000
C        1.04220000      -0.26730000      -1.40980000
C        1.91120000      -1.51370000      -1.23170000
O       -0.02890000      -0.51680000      -2.33000000
C        0.31110000      -0.45660000      -3.69900000
C       -0.84790000      -1.06420000      -4.49190000
C        0.51200000       0.99160000      -4.14430000
O        1.23310000       1.33420000      -5.04400000
H        0.23880000       2.30970000      -0.52160000
H       -1.20560000       1.37220000      -0.93440000
H       -0.84290000       1.74750000       0.75800000
H        1.19650000       0.28640000       0.65240000
H       -0.24900000      -0.63470000       0.25520000
H        1.66660000       0.55630000      -1.79600000
H        2.35880000      -1.83690000      -2.17600000
H        2.72760000      -1.31370000      -0.53070000
H        1.30940000      -2.33910000      -0.83840000
H        1.23590000      -1.00700000      -3.92060000
H       -1.77020000      -0.50250000      -4.31370000
H       -0.62500000      -1.05080000      -5.56170000
H       -1.00870000      -2.09600000      -4.16950000
H       -0.10870000       1.71870000      -3.56950000
