14
Properties=species:S:1:pos:R:3 gdb_129954=T pbc="F F F"
N        0.25440000       1.33310000      -0.33300000
C        0.07780000      -0.03890000      -0.14260000
C       -1.04930000      -0.77780000       0.05670000
O       -0.72740000      -2.07000000       0.29180000
N        0.63930000      -2.21160000       0.23400000
C        1.11600000      -1.01390000      -0.00930000
C        2.60360000      -0.80690000      -0.08710000
C        2.99290000      -0.05170000      -1.28020000
N        3.25480000       0.57920000      -2.21240000
H        0.95240000       1.55040000      -1.03550000
H       -0.60600000       1.81850000      -0.54950000
H       -2.10110000      -0.54160000       0.06890000
H        2.95830000      -0.25440000       0.79210000
H        3.10060000      -1.78110000      -0.08510000
