20
Properties=species:S:1:pos:R:3 gdb_100165=T pbc="F F F"
C        0.06060000       1.51070000      -0.18880000
N        0.08440000       0.05200000      -0.05980000
C        0.72270000      -0.47800000       1.14450000
C        2.16440000       0.04610000       1.30870000
C       -0.07350000      -0.16970000       2.44140000
O       -1.17770000       0.30440000       2.45100000
C        0.72900000      -1.94690000       1.08670000
C        0.69440000      -3.15120000       1.10210000
C        0.66290000      -4.60620000       1.08860000
H        1.06040000       1.88680000      -0.42660000
H       -0.58660000       1.76260000      -1.03330000
H       -0.31440000       2.04500000       0.69590000
H       -0.87010000      -0.29170000      -0.07080000
H        2.17900000       1.12760000       1.46680000
H        2.64320000      -0.43390000       2.16540000
H        2.73990000      -0.18930000       0.41080000
H        0.45120000      -0.45570000       3.38130000
H        1.61530000      -5.02770000       1.42790000
H       -0.12570000      -4.99320000       1.74320000
H        0.47230000      -4.98490000       0.07860000
