15
Properties=species:S:1:pos:R:3 gdb_106546=T pbc="F F F"
O        0.46940000       0.53640000       0.75060000
C       -0.19310000       0.15990000      -0.44310000
C       -1.50340000      -0.49450000      -0.11280000
O       -2.54410000      -0.68240000      -1.18610000
C       -3.21210000      -1.27000000       0.02140000
C       -1.84700000      -1.95040000       0.35760000
O       -1.43100000      -2.98250000      -0.46810000
C       -2.69560000      -0.00200000       0.73280000
O       -3.03660000       0.90890000       1.41590000
H       -0.05600000       1.22360000       1.17590000
H       -0.37200000       1.00930000      -1.11850000
H        0.46470000      -0.54770000      -0.95850000
H       -4.20360000      -1.69590000      -0.11240000
H       -1.64180000      -2.21730000       1.39580000
H       -1.64680000      -2.70730000      -1.37090000
