20
Properties=species:S:1:pos:R:3 gdb_90300=T pbc="F F F"
C       -0.14670000       1.55340000      -0.16920000
C       -0.00140000       0.04210000      -0.05480000
C        1.24990000      -0.56070000      -0.81480000
C        1.90390000      -0.63260000       0.54380000
C        2.96450000      -0.20250000       1.23010000
C        2.50340000       0.23130000       2.59060000
N        1.67590000       1.46730000       2.48320000
C        0.99920000       0.15640000       2.59410000
C        0.60360000      -0.53340000       1.29970000
H        0.77470000       2.06460000       0.11650000
H       -0.40740000       1.83250000      -1.19640000
H       -0.94150000       1.91950000       0.48920000
H       -0.94060000      -0.44840000      -0.32630000
H        1.02290000      -1.53810000      -1.25280000
H        1.72830000       0.06740000      -1.57090000
H        3.95430000       0.01080000       0.84440000
H        3.09640000       0.08790000       3.48830000
H        1.63260000       1.91300000       3.39830000
H        0.46020000      -0.05910000       3.51060000
H        0.13720000      -1.50130000       1.51950000
