17
Properties=species:S:1:pos:R:3 gdb_84527=T pbc="F F F"
C       -0.38690000       1.49210000      -0.01980000
C       -0.02050000       0.00860000       0.02180000
N        0.67050000      -0.43550000      -1.20880000
C        1.69320000      -1.09720000      -0.85420000
N        1.93340000      -1.31450000       0.54440000
C        2.33450000      -0.03730000       1.23820000
C        2.91340000       1.06230000       0.52170000
C        3.47090000       1.97470000      -0.02920000
C        0.89850000      -0.45880000       1.15740000
H        0.50550000       2.11560000      -0.09540000
H       -1.02470000       1.69140000      -0.88470000
H       -0.93460000       1.77400000       0.88500000
H       -0.95200000      -0.57030000       0.09330000
H        2.39140000      -1.54290000      -1.55590000
H        2.83120000      -0.24680000       2.18290000
H        3.94260000       2.78530000      -0.52780000
H        0.44780000      -0.83610000       2.07010000
