17
Properties=species:S:1:pos:R:3 gdb_124731=T pbc="F F F"
C       -0.34300000       1.11570000       0.41980000
C       -1.07660000       0.20140000      -0.49570000
N        2.67270000      -0.48790000       1.34670000
H        2.78490000      -1.40450000       0.92140000
H        3.54190000       0.00970000       1.17250000
H        2.63930000      -0.64880000       2.34990000
C       -2.27850000      -0.34290000      -0.26840000
N       -2.93710000      -1.21260000      -1.14570000
N       -4.04740000      -1.54720000      -0.64070000
C       -4.18160000      -0.89680000       0.63340000
N       -5.12650000      -0.95500000       1.46350000
O       -3.05480000      -0.14680000       0.84050000
H        0.61440000       0.66300000       0.71990000
H       -0.09930000       2.05370000      -0.09520000
H       -0.92720000       1.34760000       1.31220000
H       -0.62170000      -0.08270000      -1.43930000
H       -5.85060000      -1.57080000       1.09510000
