12
Properties=species:S:1:pos:R:3 gdb_4329=T pbc="F F F"
O       -0.01680000       1.29240000       0.00770000
C       -0.02760000      -0.04150000       0.00090000
N       -1.17970000      -0.63150000       0.00390000
C       -1.19590000      -2.01270000      -0.00330000
N       -2.20410000      -2.78910000      -0.00200000
N        0.08420000      -2.62990000      -0.01340000
C        1.21130000      -1.90960000      -0.01560000
N        1.23470000      -0.61050000      -0.00900000
H        0.91280000       1.55940000       0.00410000
H       -3.05290000      -2.22610000       0.00560000
H        0.09310000      -3.63970000      -0.01870000
H        2.14670000      -2.46410000      -0.02360000
