21
Properties=species:S:1:pos:R:3 gdb_103358=T pbc="F F F"
C        0.81750000      -0.45160000       1.29390000
C        0.03740000      -0.03840000       0.03970000
C       -1.38770000      -0.60730000      -0.00570000
O       -2.10840000      -0.11430000       1.10200000
C       -2.10040000      -0.60280000      -1.43390000
C       -1.26810000      -1.89860000      -1.72660000
C       -1.56540000      -2.16010000      -0.21080000
C       -3.09740000      -2.25530000      -0.27000000
C       -3.44280000      -1.24340000      -1.07020000
H        1.78880000       0.05050000       1.33310000
H        0.26120000      -0.19950000       2.20020000
H        1.00030000      -1.53100000       1.30690000
H       -0.05080000       1.05880000       0.00880000
H        0.60490000      -0.30740000      -0.85380000
H       -1.94480000       0.83240000       1.16780000
H       -2.08350000       0.26730000      -2.09190000
H       -1.72210000      -2.60340000      -2.42400000
H       -0.21770000      -1.73810000      -1.97640000
H       -1.01570000      -2.89060000       0.38280000
H       -3.71250000      -2.96860000       0.25890000
H       -4.42100000      -0.89930000      -1.37350000
