18
Properties=species:S:1:pos:R:3 gdb_90579=T pbc="F F F"
C       -0.26400000       1.51310000       0.14720000
C        0.01000000       0.02000000       0.00680000
C        0.77790000      -0.44160000      -1.30060000
N        1.91080000      -0.79280000      -0.42130000
C        1.22620000      -0.53960000       0.74640000
N        1.72240000      -0.93000000       1.85180000
C        2.98250000      -1.58790000       1.41200000
C        2.99830000      -1.60930000      -0.14970000
N        3.74550000      -2.17230000      -1.00650000
H        0.64030000       2.09880000      -0.04500000
H       -1.03590000       1.83270000      -0.55970000
H       -0.61010000       1.74730000       1.15780000
H       -0.89510000      -0.56250000       0.19670000
H        0.33990000      -1.30150000      -1.81450000
H        1.00690000       0.34780000      -2.02070000
H        3.85340000      -1.03880000       1.78940000
H        3.03700000      -2.60480000       1.81470000
H        4.46900000      -2.72110000      -0.54290000
