15
Properties=species:S:1:pos:R:3 gdb_27835=T pbc="F F F"
N        0.01820000       1.38210000      -0.13850000
C        0.00260000       0.00540000      -0.05540000
C       -1.18560000      -0.69710000      -0.02970000
C       -1.22250000      -2.12450000      -0.00200000
O       -2.19220000      -2.86700000       0.02480000
N        0.07980000      -2.72300000       0.00140000
C        1.25040000      -2.03740000      -0.01910000
O        2.41070000      -2.72810000      -0.00890000
C        1.25780000      -0.67550000      -0.04770000
H        0.85070000       1.84880000       0.18430000
H       -0.83510000       1.85790000       0.10870000
H       -2.14100000      -0.18750000      -0.03240000
H        0.05510000      -3.73280000       0.03560000
H        2.24360000      -3.67640000      -0.02420000
H        2.20010000      -0.14730000      -0.08220000
