16
Properties=species:S:1:pos:R:3 gdb_31423=T pbc="F F F"
C        0.10200000       1.38640000       0.00650000
O        0.00270000      -0.03010000       0.00350000
C       -1.22870000      -0.58160000       0.01090000
C       -2.40700000       0.11870000       0.02140000
C       -3.68780000      -0.55080000       0.02890000
O       -4.79000000      -0.02560000       0.03840000
N       -3.58620000      -1.96040000       0.02430000
C       -2.41770000      -2.65510000       0.01390000
C       -1.22400000      -2.01300000       0.00690000
H        1.16880000       1.61300000      -0.00080000
H       -0.37150000       1.81980000      -0.88210000
H       -0.35830000       1.81500000       0.90430000
H       -2.44690000       1.19810000       0.02470000
H       -4.47420000      -2.44110000       0.02940000
H       -2.50220000      -3.73510000       0.01150000
H       -0.28670000      -2.54990000      -0.00140000
