20
Properties=species:S:1:pos:R:3 gdb_106710=T pbc="F F F"
C        0.20260000       1.47870000       0.20960000
C       -0.15500000       0.02050000      -0.10900000
C        0.53510000      -0.48890000      -1.34110000
N        1.93890000      -0.92540000      -1.27110000
C        0.93800000      -1.89220000      -1.74680000
C        0.75950000      -3.20380000      -1.04500000
C        0.53850000      -1.56760000      -3.18330000
O       -0.84100000      -1.16370000      -3.19980000
C        0.14890000      -0.20450000      -2.79100000
H        1.27980000       1.58540000       0.37040000
H       -0.08460000       2.14780000      -0.60890000
H       -0.31160000       1.82030000       1.11280000
H        0.12120000      -0.61730000       0.73750000
H       -1.23790000      -0.08160000      -0.24890000
H        2.50400000      -0.54640000      -2.02900000
H        0.89410000      -3.08600000       0.03320000
H       -0.24090000      -3.60510000      -1.23430000
H        1.49370000      -3.93940000      -1.39320000
H        0.95900000      -1.92850000      -4.11550000
H        0.20300000       0.71990000      -3.35510000
