17
Properties=species:S:1:pos:R:3 gdb_54700=T pbc="F F F"
N        0.05930000       1.14660000      -0.54790000
C       -0.10310000       0.25410000       0.47190000
O        0.72240000       0.11630000       1.35530000
C       -1.38900000      -0.55780000       0.40530000
C       -1.09120000      -2.03840000       0.12370000
C       -0.98950000      -2.35180000       1.56500000
C       -1.84230000      -1.05160000       1.81010000
C       -3.04940000      -1.93630000       1.46670000
N       -2.13090000      -2.90650000       0.78300000
H        0.90800000       1.68750000      -0.57900000
H       -0.61290000       1.25280000      -1.28630000
H       -2.14730000      -0.06470000      -0.21560000
H       -0.56730000      -2.46830000      -0.71950000
H       -0.29380000      -2.93270000       2.15250000
H       -1.80070000      -0.37810000       2.66200000
H       -3.48430000      -2.43300000       2.33770000
H       -3.84690000      -1.51920000       0.83960000
