17
Properties=species:S:1:pos:R:3 gdb_75054=T pbc="F F F"
C        0.15500000       1.60590000      -0.04820000
C       -0.06280000       0.08570000       0.04880000
O       -1.44150000      -0.22340000       0.09600000
C        0.64650000      -0.63260000      -1.10990000
O        0.14150000      -0.82640000      -2.18540000
C        1.98050000      -1.12090000      -0.54990000
N        1.80160000      -1.13540000       0.90300000
C        0.70700000      -0.53260000       1.20240000
N        0.24160000      -0.36050000       2.47510000
H        1.21860000       1.86410000      -0.05190000
H       -0.30270000       1.97980000      -0.96910000
H       -0.31680000       2.09590000       0.80720000
H       -1.70340000      -0.42750000      -0.81360000
H        2.22950000      -2.11510000      -0.93730000
H        2.79610000      -0.44970000      -0.85780000
H        0.67400000      -0.94770000       3.17420000
H       -0.76040000      -0.26970000       2.55680000
