17
Properties=species:S:1:pos:R:3 gdb_83318=T pbc="F F F"
O       -0.15860000       1.26620000      -0.50990000
C       -0.02880000      -0.05840000      -0.10740000
C       -0.39190000      -0.41140000       1.30720000
O       -1.03850000       0.64390000       1.97870000
C       -2.45130000       0.55290000       1.71930000
C       -2.58410000      -0.10680000       0.33320000
C       -2.85830000       0.89800000      -0.78680000
O       -3.38400000       1.96700000      -0.61480000
C       -1.27730000      -0.88760000       0.17810000
H       -0.31400000       1.78210000       0.29570000
H        0.80720000      -0.56770000      -0.57830000
H        0.20900000      -1.06010000       1.93620000
H       -2.92840000      -0.05540000       2.49800000
H       -2.86870000       1.56150000       1.73480000
H       -3.43030000      -0.80560000       0.30820000
H       -2.59010000       0.53700000      -1.80220000
H       -1.30250000      -1.92830000      -0.12080000
