14
Properties=species:S:1:pos:R:3 gdb_47710=T pbc="F F F"
O       -0.03390000      -0.07180000       0.16720000
C       -0.06600000       1.12940000       0.04910000
C       -1.37910000       1.90460000      -0.04220000
O       -1.27830000       2.99670000      -0.93800000
C       -0.81930000       4.16530000      -0.34370000
O        0.30720000       3.95560000       0.50310000
C        1.37280000       3.21930000       0.06840000
O        2.47180000       3.67890000      -0.05410000
N        1.11340000       1.86190000      -0.08580000
H       -2.12130000       1.21160000      -0.44060000
H       -1.69720000       2.22140000       0.96100000
H       -0.56680000       4.85000000      -1.15930000
H       -1.56430000       4.61400000       0.32610000
H        1.94500000       1.29570000      -0.19760000
