16
Properties=species:S:1:pos:R:3 gdb_27211=T pbc="F F F"
O        0.08770000       1.40200000      -0.07210000
C        0.06980000       0.03690000      -0.03510000
C        0.03850000      -0.77380000      -1.15420000
C        0.01180000      -0.80470000      -2.59720000
C       -0.01310000      -2.08470000      -3.01460000
C       -0.00430000      -3.02670000      -1.82340000
N        0.02870000      -2.08770000      -0.70980000
C        0.05270000      -2.12690000       0.64800000
C        0.07880000      -0.81670000       1.10340000
H        0.10850000       1.72790000       0.83190000
H        0.01240000       0.07560000      -3.22430000
H       -0.03640000      -2.44010000      -4.03440000
H       -0.89770000      -3.66420000      -1.78520000
H        0.87220000      -3.68830000      -1.81740000
H        0.04990000      -3.05530000       1.19650000
H        0.10180000      -0.50820000       2.13870000
