21
Properties=species:S:1:pos:R:3 gdb_109304=T pbc="F F F"
C        0.11480000       1.48210000      -0.14660000
C       -0.06180000      -0.03110000       0.05880000
C       -1.55220000      -0.39930000       0.13910000
O        0.50580000      -0.70700000      -1.07960000
C        1.55870000      -1.58000000      -0.68320000
C        1.64970000      -1.43420000       0.80590000
C        0.74190000      -0.56460000       1.23410000
C        0.49750000      -0.13350000       2.64350000
O        1.39860000      -0.80680000       3.50450000
H        1.17620000       1.73830000      -0.20300000
H       -0.36380000       1.78510000      -1.08250000
H       -0.33990000       2.05390000       0.66920000
H       -2.05090000      -0.12100000      -0.79390000
H       -1.67200000      -1.47600000       0.28680000
H       -2.05150000       0.12390000       0.96150000
H        1.32770000      -2.61200000      -0.99320000
H        2.49360000      -1.29650000      -1.19320000
H        2.35730000      -1.96720000       1.42590000
H        0.61670000       0.96140000       2.71860000
H       -0.55060000      -0.34740000       2.91660000
H        1.22810000      -0.51230000       4.40350000
