11
Properties=species:S:1:pos:R:3 gdb_21869=T pbc="F F F"
O       -0.08750000       1.31430000       0.01580000
C        0.07070000      -0.01030000       0.03130000
N        1.21110000      -0.57390000      -0.10170000
C        1.20600000      -1.96570000      -0.05530000
N        2.26870000      -2.63790000       0.11580000
N       -0.05760000      -2.65410000      -0.25350000
N       -1.13920000      -2.05320000      -0.12630000
N       -1.09490000      -0.70100000       0.19060000
H        0.79970000       1.69310000      -0.08190000
H        2.03660000      -3.63160000       0.07620000
H       -1.99170000      -0.24200000       0.14570000
