14
Properties=species:S:1:pos:R:3 gdb_3713=T pbc="F F F"
C        0.02220000       1.55740000       0.18380000
C       -0.03440000       0.04520000      -0.09480000
C       -1.42680000      -0.48710000      -0.15220000
C       -2.17940000      -1.05380000      -1.13580000
C       -3.42250000      -1.31140000      -0.50000000
N       -3.42670000      -0.93580000       0.75440000
O       -2.15470000      -0.40990000       0.97860000
H        1.06040000       1.89730000       0.23400000
H       -0.48520000       2.11990000      -0.60550000
H       -0.46370000       1.79450000       1.13350000
H        0.45650000      -0.18560000      -1.04490000
H        0.51820000      -0.49030000       0.68680000
H       -1.89140000      -1.25720000      -2.15360000
H       -4.31500000      -1.75930000      -0.91420000
