15
Properties=species:S:1:pos:R:3 gdb_23924=T pbc="F F F"
F        0.20950000       0.19380000      -0.07470000
C       -0.01350000       1.51870000       0.00420000
F        1.17880000       2.12790000      -0.11450000
F       -0.74890000       1.86010000      -1.06790000
C       -0.70200000       1.89810000       1.28970000
C       -2.00470000       1.13930000       1.66320000
C       -1.49970000       1.08250000       3.13140000
C       -0.06890000       1.40810000       2.62060000
H       -0.84590000       2.98130000       1.27660000
H       -2.95050000       1.64550000       1.46370000
H       -2.02800000       0.14950000       1.20120000
H       -1.91130000       1.89570000       3.73530000
H       -1.63740000       0.14480000       3.67300000
H        0.52360000       0.50370000       2.46330000
H        0.52690000       2.12820000       3.18370000
