15
Properties=species:S:1:pos:R:3 gdb_7126=T pbc="F F F"
C       -0.14640000       1.47240000       0.01190000
O        0.02540000       0.07270000       0.00240000
C       -1.17920000      -0.62010000       0.01050000
C       -0.89420000      -2.12690000      -0.00060000
O        0.20170000      -2.60850000      -0.01410000
N       -2.08950000      -2.87050000       0.00660000
C       -2.23650000      -4.25610000       0.00010000
O       -1.35640000      -5.06910000      -0.01300000
H        0.85060000       1.91690000       0.00450000
H       -0.70090000       1.82140000      -0.87340000
H       -0.68330000       1.81150000       0.91170000
H       -1.78640000      -0.38170000       0.90450000
H       -1.80390000      -0.37190000      -0.86860000
H       -2.95360000      -2.34670000       0.01770000
H       -3.31420000      -4.52110000       0.00850000
