18
Properties=species:S:1:pos:R:3 gdb_95060=T pbc="F F F"
O       -0.01480000       1.45220000       0.25090000
C        0.04670000       0.04400000       0.14530000
C        0.63840000      -0.67890000       1.37320000
C       -0.09510000      -2.03260000       1.37350000
N       -1.45940000      -1.76120000       0.89370000
C       -2.36980000      -1.10750000       1.87960000
C       -2.46920000       0.10490000       0.94180000
O       -3.15060000       1.08200000       0.89500000
C       -1.39240000      -0.52860000       0.04020000
H        0.88140000       1.79880000       0.20100000
H        0.60140000      -0.24990000      -0.75890000
H        1.72670000      -0.77730000       1.32570000
H        0.39160000      -0.09350000       2.26620000
H        0.38950000      -2.73230000       0.68130000
H       -0.12410000      -2.51560000       2.35400000
H       -3.30290000      -1.65190000       2.05920000
H       -1.91250000      -0.86510000       2.84990000
H       -1.70180000      -0.66980000      -0.99970000
