20
Properties=species:S:1:pos:R:3 gdb_16017=T pbc="F F F"
C        0.01000000       1.49980000      -0.03230000
C        1.32220000       0.73360000      -0.03770000
C       -0.00370000       0.00940000       0.03800000
C       -0.40920000      -0.73010000       1.29790000
C        0.07660000      -2.18730000       1.23240000
C       -0.36390000      -2.82560000      -0.09250000
C        0.06080000      -1.94370000      -1.26820000
O       -0.44600000      -0.61970000      -1.13920000
H       -0.26140000       2.06050000       0.85590000
H       -0.30880000       1.94260000      -0.96890000
H        1.85990000       0.68500000      -0.97780000
H        1.94960000       0.77430000       0.84650000
H       -0.00790000      -0.22070000       2.18040000
H       -1.50400000      -0.71020000       1.37990000
H        1.17260000      -2.20600000       1.29780000
H       -0.30300000      -2.75910000       2.08570000
H        0.06480000      -3.82750000      -0.20950000
H       -1.45570000      -2.93330000      -0.10800000
H        1.16100000      -1.91850000      -1.33990000
H       -0.33120000      -2.32390000      -2.21610000
