16
Properties=species:S:1:pos:R:3 gdb_36750=T pbc="F F F"
C        0.42060000      -1.25540000       0.17440000
C        0.28930000      -0.06930000       0.31000000
C        0.13000000       1.37140000       0.45280000
N        0.81530000       2.08010000      -0.62030000
C        0.81370000       3.43490000      -0.68430000
N        0.29340000       4.14770000       0.23970000
C        0.35050000       5.59230000       0.15460000
C        0.98620000       6.15920000      -1.05020000
N        1.49370000       6.54730000      -2.01390000
H        0.53230000      -2.30650000       0.06980000
H       -0.93650000       1.63850000       0.46670000
H        0.53320000       1.71100000       1.41490000
H        1.10000000       1.55230000      -1.42670000
H        1.30480000       3.83510000      -1.57840000
H       -0.66750000       5.99920000       0.21690000
H        0.88200000       5.98930000       1.02980000
