22
Properties=species:S:1:pos:R:3 gdb_102617=T pbc="F F F"
C        0.41910000       1.57450000      -0.67550000
C        0.31250000       0.04920000      -0.56600000
C       -0.97970000      -0.47950000       0.09380000
C       -2.21230000      -0.13740000      -0.76050000
N       -3.47330000      -0.46160000      -0.06240000
H       -4.24470000      -0.52070000      -0.71900000
H       -3.14470000      -1.75200000       1.06100000
H       -3.70880000       0.27750000       0.59460000
C       -0.85300000      -2.00800000       0.35170000
C       -1.48980000      -2.55500000       1.63470000
O       -2.79360000      -2.31330000       1.80460000
O       -0.85540000      -3.18650000       2.44210000
H        1.40520000       1.86310000      -1.05190000
H       -0.32310000       2.00180000      -1.35650000
H        0.28740000       2.04990000       0.30300000
H        0.41940000      -0.40420000      -1.56140000
H        1.16070000      -0.31780000       0.02250000
H       -1.08610000       0.03320000       1.06130000
H       -2.18360000       0.91640000      -1.06370000
H       -2.17980000      -0.73460000      -1.67940000
H       -1.27620000      -2.55840000      -0.49970000
H        0.20010000      -2.28650000       0.41590000
