14
Properties=species:S:1:pos:R:3 gdb_129507=T pbc="F F F"
N       -0.10240000       1.30330000      -0.01770000
C        0.08700000      -0.02960000      -0.01200000
O        1.16070000      -0.60340000       0.01110000
N       -1.12940000      -0.75530000      -0.03540000
N       -2.36160000      -0.11730000       0.02490000
N       -3.25590000      -1.04030000       0.05980000
C       -2.67220000      -2.27180000       0.02280000
C       -1.29960000      -2.11460000      -0.03950000
N       -0.26400000      -2.99350000      -0.15660000
H        0.70610000       1.89720000       0.03010000
H       -1.03840000       1.67720000      -0.00310000
H       -3.25170000      -3.17960000       0.03690000
H       -0.43290000      -3.92830000       0.17680000
H        0.64930000      -2.59930000       0.02900000
