17
Properties=species:S:1:pos:R:3 gdb_74246=T pbc="F F F"
C       -0.11320000       1.53400000       0.10240000
C       -0.03650000       0.04340000       0.01710000
C        0.07680000      -0.71570000      -1.07650000
C        0.10690000      -2.21080000      -0.76450000
C        1.23190000      -2.92230000      -1.36270000
C        2.15180000      -3.50830000      -1.86650000
C        0.09720000      -2.22520000       0.77370000
O        1.20420000      -1.57530000       1.38470000
C       -0.03140000      -0.83630000       1.23330000
H        0.73340000       1.93930000       0.67020000
H       -0.11120000       1.99290000      -0.88950000
H       -1.02380000       1.85540000       0.62330000
H        0.18200000      -0.35130000      -2.09170000
H       -0.82510000      -2.67990000      -1.11540000
H        2.97130000      -4.02380000      -2.30240000
H       -0.30040000      -3.08610000       1.30310000
H       -0.51230000      -0.54450000       2.16290000
