23
Properties=species:S:1:pos:R:3 gdb_94677=T pbc="F F F"
C       -0.05140000       1.57290000      -0.00470000
C        0.03460000       0.04610000       0.00350000
C        0.78440000      -0.56170000      -1.20310000
C        1.29720000      -1.93770000      -0.71840000
C        1.50560000      -1.78420000       0.78580000
C        1.57240000      -3.02150000       1.64640000
C        2.26440000      -0.53580000       1.21860000
C        0.75230000      -0.54890000       1.21210000
O        0.06820000      -0.54970000       2.43190000
H        0.94770000       2.02360000      -0.00450000
H       -0.58350000       1.93830000      -0.88920000
H       -0.58870000       1.94240000       0.87620000
H       -0.98590000      -0.36070000       0.03250000
H        0.14860000      -0.64000000      -2.08920000
H        1.62580000       0.08390000      -1.47930000
H        0.53780000      -2.71140000      -0.89080000
H        2.20250000      -2.25560000      -1.24830000
H        2.49360000      -3.58690000       1.46390000
H        1.53520000      -2.75850000       2.70690000
H        0.72670000      -3.68810000       1.44050000
H        2.72780000      -0.58670000       2.19860000
H        2.81660000       0.05340000       0.49270000
H        0.19900000       0.30820000       2.84890000
