17
Properties=species:S:1:pos:R:3 gdb_64971=T pbc="F F F"
C       -0.08570000       1.54280000      -0.72120000
C       -0.08310000       0.21440000      -0.00410000
C        0.88290000      -0.84170000      -0.38030000
O        1.06360000      -0.08300000       0.80890000
C       -1.41550000      -0.21840000       0.57580000
O       -2.44770000       0.15130000       0.07490000
C       -1.35490000      -1.09670000       1.83450000
C       -2.64450000      -1.62160000       2.24640000
C       -3.70570000      -2.06370000       2.59200000
H        0.89640000       1.74320000      -1.15480000
H       -0.84120000       1.53780000      -1.50970000
H       -0.33270000       2.35220000      -0.02760000
H        0.63870000      -1.89370000      -0.24020000
H        1.58410000      -0.63170000      -1.18660000
H       -0.62950000      -1.90470000       1.68410000
H       -0.90840000      -0.47810000       2.62540000
H       -4.64690000      -2.45060000       2.89480000
