15
Properties=species:S:1:pos:R:3 gdb_67306=T pbc="F F F"
O       -0.11480000       1.35060000      -0.04930000
C       -0.05740000      -0.01120000      -0.04430000
C        0.91180000      -0.99560000      -0.81680000
O        1.92370000      -0.99670000       0.23380000
C        0.65960000      -1.00760000       0.95860000
C       -0.06360000      -1.94950000      -0.06070000
C       -1.21980000      -0.96730000      -0.22270000
O       -2.42930000      -0.96470000       0.49450000
C       -2.47740000      -0.93970000      -0.95290000
H        0.77450000       1.69110000       0.11110000
H        1.22670000      -1.00820000      -1.85900000
H        0.66900000      -1.03750000       2.04670000
H       -0.04610000      -3.03470000      -0.06570000
H       -2.83480000      -0.00610000      -1.38380000
H       -2.86140000      -1.84690000      -1.41690000
