14
Properties=species:S:1:pos:R:3 gdb_124377=T pbc="F F F"
C       -0.23340000       1.40160000       0.16150000
C        0.33790000       0.10620000      -0.34920000
O        1.43610000      -0.05840000      -0.80800000
O       -0.58830000      -0.88760000      -0.21630000
C       -0.29740000      -2.15920000      -0.61310000
C        0.82310000      -2.73260000      -1.17190000
N        0.44130000      -4.02620000      -1.31520000
N       -0.80990000      -4.23840000      -0.88220000
N       -1.26370000      -3.09370000      -0.45130000
H        0.50870000       2.19100000       0.05320000
H       -1.13890000       1.65620000      -0.39650000
H       -0.51960000       1.29500000       1.21160000
H        1.78310000      -2.34840000      -1.45450000
H        0.97020000      -4.79720000      -1.69110000
