13
Properties=species:S:1:pos:R:3 gdb_48903=T pbc="F F F"
O        0.04620000      -0.02630000       0.04390000
C        0.08650000       1.17270000      -0.00070000
C        1.34970000       1.96180000      -0.00230000
O        2.65000000       1.33950000       0.05060000
C        2.91180000       2.76770000       0.00160000
C        1.77400000       3.09660000      -1.03310000
C        1.22520000       4.15770000      -0.08950000
O        0.68210000       5.21770000      -0.14240000
C        1.72950000       3.17300000       0.95620000
H       -0.82510000       1.80940000      -0.04490000
H        3.93940000       3.12200000       0.01110000
H        1.81660000       2.99910000      -2.11420000
H        1.72360000       3.15890000       2.04250000
