17
Properties=species:S:1:pos:R:3 gdb_91576=T pbc="F F F"
O        0.16900000       1.45820000       0.26000000
C        0.03910000       0.06920000       0.09600000
C        0.17780000      -0.74300000       1.40240000
N       -1.17380000      -1.39080000       1.21430000
C       -2.13470000      -0.26710000       1.21830000
C       -1.37000000      -0.52800000      -0.01510000
C       -1.97250000      -1.06350000      -1.29500000
C       -2.21580000       0.02780000      -2.24070000
N       -2.36640000       0.91800000      -2.96220000
H       -0.03660000       1.88730000      -0.57850000
H        0.69760000      -0.30820000      -0.69860000
H        0.96820000      -1.49440000       1.38630000
H        0.25440000      -0.14200000       2.31260000
H       -3.16980000      -0.59390000       1.24310000
H       -1.91380000       0.61870000       1.80810000
H       -1.29630000      -1.78800000      -1.76500000
H       -2.91110000      -1.58840000      -1.09020000
