19
Properties=species:S:1:pos:R:3 gdb_70126=T pbc="F F F"
O        0.10770000       1.35060000       0.03490000
C        0.04470000      -0.04820000      -0.05220000
C       -0.64360000      -0.66480000      -1.24950000
C       -1.32640000      -0.61530000       0.11860000
C       -1.61040000      -1.82080000       0.93770000
C       -1.00400000      -2.17030000       2.08400000
C        0.13390000      -1.50930000       2.72360000
C        1.12500000      -0.86880000       2.08900000
C        1.21360000      -0.78380000       0.58540000
H        0.82660000       1.64790000      -0.53440000
H       -1.03280000       0.00700000      -2.00600000
H       -0.28560000      -1.62110000      -1.61650000
H       -2.10910000       0.14000000       0.16470000
H       -2.45870000      -2.41890000       0.60740000
H       -1.40630000      -3.02840000       2.62040000
H        0.17890000      -1.59320000       3.80760000
H        1.92870000      -0.43000000       2.67320000
H        1.23780000      -1.80410000       0.17940000
H        2.14930000      -0.30330000       0.27660000
