16
Properties=species:S:1:pos:R:3 gdb_69618=T pbc="F F F"
C       -0.07700000       1.54030000       0.03880000
C        0.08190000       0.05430000       0.02040000
N       -0.82100000      -0.88820000       0.71860000
C        0.62850000      -0.90340000       1.00750000
C        1.34610000      -1.69990000      -0.13640000
N        0.32970000      -2.13850000      -1.13460000
C        0.78060000      -0.74380000      -1.14000000
C        2.64830000      -2.25950000      -0.06660000
N        3.71340000      -2.70910000       0.01060000
H        0.84220000       2.03860000      -0.28820000
H       -0.88750000       1.86040000      -0.62600000
H       -0.30760000       1.89400000       1.04900000
H       -1.26140000      -0.36700000       1.47790000
H        1.03650000      -0.75290000       1.99800000
H        0.83650000      -2.62470000      -1.87620000
H        1.27950000      -0.29760000      -1.99080000
