20
Properties=species:S:1:pos:R:3 gdb_122852=T pbc="F F F"
C       -0.09110000       1.22910000      -0.13930000
O        0.06540000      -0.17330000       0.07610000
C        0.71560000      -0.51890000       1.19260000
N        1.17080000       0.33090000       2.01830000
O        0.75740000      -1.86820000       1.21110000
C        1.40850000      -2.48540000       2.31810000
C        1.32790000      -3.99060000       2.11710000
C        1.99660000      -4.76000000       3.25000000
O        1.86320000      -6.14120000       2.96150000
H        0.88210000       1.72240000      -0.20820000
H       -0.63510000       1.32000000      -1.08020000
H       -0.65560000       1.68680000       0.67740000
H        1.63570000      -0.10130000       2.80930000
H        2.45400000      -2.14960000       2.36640000
H        0.91350000      -2.18540000       3.25250000
H        0.27840000      -4.29370000       2.04650000
H        1.80550000      -4.25850000       1.16920000
H        3.05700000      -4.46780000       3.32710000
H        1.51900000      -4.50370000       4.21040000
H        2.28240000      -6.63950000       3.66900000
