17
Properties=species:S:1:pos:R:3 gdb_115025=T pbc="F F F"
C        0.07880000       1.58640000       0.01870000
C        0.11890000       0.05640000       0.05440000
C        0.62950000      -0.54940000      -1.24390000
O        1.99890000      -0.11440000      -1.48880000
C        2.71720000      -1.22890000      -1.71620000
N        2.17090000      -2.37320000      -1.66420000
C        0.75630000      -2.11490000      -1.31610000
C        0.39670000      -2.80960000      -0.07250000
N        0.09140000      -3.34790000       0.90300000
H        1.07550000       1.99950000      -0.15730000
H       -0.58140000       1.94810000      -0.77740000
H       -0.29280000       1.98390000       0.96700000
H        0.75010000      -0.29250000       0.87910000
H       -0.88360000      -0.34560000       0.24200000
H        0.03630000      -0.18910000      -2.09070000
H        3.76420000      -1.05510000      -1.93860000
H        0.11370000      -2.51740000      -2.10610000
