17
Properties=species:S:1:pos:R:3 gdb_106859=T pbc="F F F"
C       -0.32390000       1.29140000      -0.05570000
O        0.26500000       0.00760000       0.11420000
C        0.78360000      -0.52510000      -1.03310000
C       -0.05720000      -1.02700000      -2.18290000
C        0.87090000      -1.98560000      -1.45890000
O        2.20970000      -1.81080000      -1.95270000
C        2.24800000      -0.44340000      -1.46050000
C        0.49090000      -3.20930000      -0.85210000
C        0.16890000      -4.24740000      -0.33660000
H        0.41970000       2.04190000      -0.35620000
H       -1.12410000       1.26650000      -0.80670000
H       -0.74330000       1.57360000       0.91170000
H       -1.10620000      -1.15570000      -1.93620000
H        0.16470000      -0.76630000      -3.21430000
H        2.52280000       0.27210000      -2.24340000
H        2.92850000      -0.35740000      -0.60630000
H       -0.11200000      -5.16400000       0.12000000
