21
Properties=species:S:1:pos:R:3 gdb_39655=T pbc="F F F"
C        0.08380000       1.43510000      -0.26060000
C        1.52450000       1.46980000       0.28270000
C        1.20910000       0.04560000       0.80140000
O       -0.06740000       0.04800000       0.10220000
C        2.09620000      -1.07990000       0.35990000
C        3.27800000      -1.61510000       1.13140000
C        3.01770000      -1.65340000       2.64470000
C        1.75480000      -2.54010000       2.39050000
C        2.04400000      -2.49210000       0.88410000
H       -0.62490000       2.07890000       0.27790000
H       -0.04530000       1.59500000      -1.33740000
H        2.29620000       1.49040000      -0.49010000
H        1.75010000       2.22550000       1.03650000
H        1.04180000       0.01930000       1.88500000
H        2.28370000      -1.05470000      -0.71260000
H        4.25830000      -1.67200000       0.67270000
H        3.79490000      -2.20150000       3.18180000
H        2.86990000      -0.69280000       3.14820000
H        1.87220000      -3.54300000       2.80610000
H        0.78690000      -2.14640000       2.71510000
H        1.92730000      -3.32690000       0.20340000
