17
Properties=species:S:1:pos:R:3 gdb_70486=T pbc="F F F"
C       -0.09040000       1.45030000      -0.05340000
C        0.14610000      -0.02280000       0.00510000
O       -0.73560000      -0.82730000       0.79640000
C        0.66880000      -0.94060000       1.04220000
C        1.19690000      -1.93930000       0.00510000
C        0.71410000      -0.93700000      -1.09460000
O       -0.23010000      -1.42170000      -2.03780000
C        0.06910000      -1.33970000      -3.34940000
O       -0.66610000      -1.72310000      -4.20700000
H        0.78990000       1.97500000      -0.43880000
H       -0.93610000       1.67700000      -0.71180000
H       -0.32210000       1.83640000       0.94230000
H        1.02620000      -0.73060000       2.04310000
H        2.27890000      -2.08630000       0.00280000
H        0.68190000      -2.90140000       0.00980000
H        1.55870000      -0.46630000      -1.61230000
H        1.06110000      -0.88060000      -3.53440000
