13
Properties=species:S:1:pos:R:3 gdb_16604=T pbc="F F F"
O       -0.00480000      -0.00210000      -0.00550000
C       -0.04460000       1.19430000       0.01330000
C       -1.27090000       2.10070000       0.09220000
C       -0.69590000       3.50690000       0.05980000
C        0.15390000       3.97970000       1.17590000
N        0.78590000       3.47270000      -0.06960000
C        1.21270000       2.12170000       0.00450000
O        2.34660000       1.74440000       0.06990000
H       -1.91900000       1.90510000      -0.76770000
H       -1.85320000       1.87800000       0.99180000
H       -1.17760000       4.24390000      -0.57460000
H        0.29850000       5.04150000       1.34590000
H        0.23380000       3.36040000       2.06700000
