18
Properties=species:S:1:pos:R:3 gdb_127426=T pbc="F F F"
C       -0.00830000       1.41250000      -0.08080000
N        0.00220000      -0.02830000       0.00770000
N       -0.03750000      -0.79680000      -1.12390000
C        0.01040000      -2.05650000      -0.69880000
C       -0.01930000      -3.19060000      -1.67230000
C        0.08490000      -2.11860000       0.71720000
N        0.15200000      -3.18050000       1.66600000
C        0.07790000      -0.79510000       1.11190000
O        0.13140000      -0.27280000       2.35030000
H        0.90900000       1.77970000      -0.55190000
H       -0.86480000       1.74230000      -0.67440000
H       -0.08420000       1.82220000       0.92730000
H        0.87850000      -3.81510000      -1.59310000
H       -0.88170000      -3.84640000      -1.50340000
H       -0.07820000      -2.80160000      -2.69090000
H        0.97490000      -3.76080000       1.53390000
H       -0.65410000      -3.79560000       1.61020000
H        0.17000000      -1.04060000       2.94150000
