21
Properties=species:S:1:pos:R:3 gdb_73552=T pbc="F F F"
C       -0.02700000       1.58050000      -0.06390000
C       -0.02850000       0.03980000      -0.04860000
C       -1.44110000      -0.54880000       0.16870000
C       -1.52880000      -0.79610000       1.70400000
C       -0.07320000      -0.97940000       2.09600000
C        0.73010000      -0.52160000       1.14200000
C        2.18010000      -0.59770000       0.77460000
O        2.20400000      -0.40600000      -0.64950000
C        0.87110000      -0.50990000      -1.16790000
H        0.99320000       1.97130000      -0.12310000
H       -0.58180000       1.95580000      -0.93120000
H       -0.49500000       1.98550000       0.83890000
H       -2.23750000       0.10170000      -0.20360000
H       -1.52730000      -1.50870000      -0.35280000
H       -1.98850000       0.05300000       2.22950000
H       -2.14020000      -1.67170000       1.94950000
H        0.23400000      -1.44650000       3.02550000
H        2.79720000       0.18770000       1.22980000
H        2.62250000      -1.56800000       1.04180000
H        0.61840000      -1.55880000      -1.39110000
H        0.84690000       0.06380000      -2.09930000
