14
Properties=species:S:1:pos:R:3 gdb_4303=T pbc="F F F"
C       -0.01010000       1.47700000       0.00140000
C       -0.02980000      -0.02140000       0.01180000
N       -1.16790000      -0.63530000      -0.11980000
C       -1.18820000      -2.02520000      -0.11030000
N       -2.20260000      -2.78550000      -0.22570000
N        0.07490000      -2.63730000       0.04690000
C        1.19550000      -1.90840000       0.17540000
N        1.21930000      -0.61240000       0.16710000
H        0.63650000       1.83160000      -0.80820000
H       -1.01670000       1.87440000      -0.12270000
H        0.42770000       1.84660000       0.93460000
H       -3.03390000      -2.20620000      -0.33070000
H        0.08910000      -3.64730000       0.05720000
H        2.12180000      -2.46770000       0.29160000
