23
Properties=species:S:1:pos:R:3 gdb_114530=T pbc="F F F"
C       -0.34150000       1.76930000       0.54050000
C       -0.04140000       0.27710000       0.36360000
C       -1.20490000      -0.53680000      -0.21640000
C       -1.63590000      -0.07530000      -1.63610000
C       -2.35450000      -1.22600000      -2.35470000
C       -1.38840000      -2.39220000      -2.63470000
C       -1.79450000      -2.78560000      -1.20220000
C       -0.92150000      -2.06300000      -0.16770000
O       -3.04600000      -2.05040000      -1.36690000
H        0.50720000       2.29040000       0.99460000
H       -0.55340000       2.25710000      -0.41620000
H       -1.21110000       1.92230000       1.18960000
H        0.84030000       0.15280000      -0.28080000
H        0.23450000      -0.15080000       1.33670000
H       -2.07880000      -0.37690000       0.42440000
H       -2.29360000       0.79590000      -1.55420000
H       -0.77110000       0.23780000      -2.23650000
H       -3.02620000      -0.89270000      -3.15010000
H       -1.77940000      -3.08480000      -3.38210000
H       -0.33870000      -2.16380000      -2.83520000
H       -1.96730000      -3.84000000      -0.97070000
H        0.13490000      -2.28080000      -0.37350000
H       -1.12680000      -2.43360000       0.84260000
