18
Properties=species:S:1:pos:R:3 gdb_85273=T pbc="F F F"
C       -0.02640000       1.52900000       0.01660000
C        0.13820000       0.03490000      -0.03270000
N       -0.74070000      -0.85200000       0.74580000
C        0.72360000      -0.79010000       1.06350000
C        1.48000000      -1.92650000       0.43730000
O        2.36650000      -2.55480000       0.95730000
C        0.99240000      -2.04510000      -1.00870000
C        0.43630000      -0.64600000      -1.37680000
O       -0.69860000      -0.66170000      -2.21750000
H        0.88920000       2.03510000      -0.30660000
H       -0.83460000       1.84000000      -0.65360000
H       -0.26400000       1.87260000       1.02860000
H       -1.22920000      -0.30600000       1.45350000
H        1.04610000      -0.38120000       2.01420000
H        1.79220000      -2.39340000      -1.66370000
H        0.18380000      -2.78330000      -1.04570000
H        1.19510000      -0.06940000      -1.91610000
H       -1.40540000      -1.07050000      -1.70090000
