17
Properties=species:S:1:pos:R:3 gdb_46954=T pbc="F F F"
O        0.03330000       0.01060000       0.24000000
C       -0.01460000       1.18270000      -0.02230000
O       -1.22370000       1.75450000      -0.26780000
C       -1.32770000       3.08170000      -0.81500000
C       -0.22760000       4.00520000      -0.33310000
C        0.08260000       3.93560000       1.20240000
C        1.40610000       3.24860000       0.86610000
C        1.18240000       3.45380000      -0.61900000
C        1.19830000       2.05580000      -0.06480000
H       -1.32200000       3.00810000      -1.91090000
H       -2.31480000       3.43710000      -0.50430000
H       -0.40000000       5.01860000      -0.70000000
H        0.23680000       4.93130000       1.62350000
H       -0.62450000       3.38730000       1.83140000
H        2.32560000       3.31710000       1.43390000
H        1.86320000       3.78060000      -1.39470000
H        2.10120000       1.47880000      -0.22540000
