25
Properties=species:S:1:pos:R:3 gdb_116189=T pbc="F F F"
C       -0.19760000       1.70200000      -0.35660000
C       -0.22360000       0.17370000      -0.24580000
C        0.77620000      -0.51970000      -1.17380000
C        2.26710000      -0.31070000      -0.83230000
C        3.02060000      -1.53810000      -1.42810000
C        1.92500000      -2.44480000      -2.03210000
C        0.62330000      -2.05510000      -1.29770000
C        0.50140000      -2.77590000       0.05090000
O       -0.54520000      -2.29780000      -2.08060000
H        0.78020000       2.11010000      -0.07940000
H       -0.41290000       2.02640000      -1.38100000
H       -0.94440000       2.15920000       0.30030000
H       -0.02530000      -0.11480000       0.79480000
H       -1.22870000      -0.19220000      -0.48760000
H        0.59750000      -0.14630000      -2.19210000
H        2.64430000       0.63580000      -1.22790000
H        2.40230000      -0.26540000       0.25490000
H        3.75460000      -1.24310000      -2.18260000
H        3.57670000      -2.06410000      -0.64630000
H        1.77860000      -2.22410000      -3.09460000
H        2.15780000      -3.51180000      -1.94740000
H        1.35580000      -2.57150000       0.70400000
H       -0.41100000      -2.47840000       0.57340000
H        0.46580000      -3.86130000      -0.10510000
H       -0.69980000      -3.24790000      -2.09900000
