15
Properties=species:S:1:pos:R:3 gdb_52010=T pbc="F F F"
N       -0.36550000       1.18170000       0.19070000
C       -0.44080000      -0.04940000       0.43550000
O       -0.70490000      -0.91390000      -0.57990000
C       -0.83260000      -2.28190000      -0.26760000
C       -2.33150000      -2.68930000      -0.14600000
C       -2.46410000      -4.14290000      -0.07630000
C       -2.52440000      -5.34050000      -0.03380000
C       -2.95060000      -2.03670000       1.01820000
N       -3.40460000      -1.50970000       1.94010000
H       -0.15340000       1.69600000       1.04280000
H       -0.30590000      -0.54550000       1.40470000
H       -0.39770000      -2.84830000      -1.09380000
H       -0.30370000      -2.54340000       0.65580000
H       -2.83610000      -2.31170000      -1.04480000
H       -2.59620000      -6.40000000       0.00610000
