13
Properties=species:S:1:pos:R:3 gdb_5042=T pbc="F F F"
N       -0.09650000       1.16330000      -0.58100000
C       -0.02940000       0.02170000      -0.01860000
C       -1.28450000      -0.67340000       0.33390000
C       -1.48590000      -1.99390000       0.16510000
C       -0.50650000      -2.91680000      -0.37920000
N        0.78030000      -2.84470000      -0.36380000
C        1.45170000      -1.80780000       0.26930000
N        1.16910000      -0.56800000       0.41230000
H        0.84930000       1.52470000      -0.73100000
H       -2.09720000      -0.03680000       0.67160000
H       -2.47480000      -2.40530000       0.34970000
H       -0.91960000      -3.81190000      -0.85180000
H        2.41710000      -2.13110000       0.66220000
