21
Properties=species:S:1:pos:R:3 gdb_102319=T pbc="F F F"
C        0.20940000       1.42450000       0.07290000
C        0.08480000      -0.09480000       0.15540000
O        0.47180000      -0.57710000       1.44480000
C       -1.32540000      -0.58250000      -0.21450000
C       -1.45600000      -2.10910000      -0.18820000
C       -2.91490000      -2.58690000      -0.01270000
O       -3.02840000      -3.99210000       0.13190000
C       -0.84990000      -2.76720000      -1.41490000
O       -0.25070000      -2.18110000      -2.28360000
H        1.21560000       1.73950000       0.36210000
H        0.01160000       1.78160000      -0.94250000
H       -0.50950000       1.91310000       0.74400000
H        0.79970000      -0.55220000      -0.53500000
H       -0.04470000      -0.09590000       2.10130000
H       -2.04330000      -0.14100000       0.49200000
H       -1.58350000      -0.20840000      -1.21100000
H       -0.89060000      -2.48820000       0.67840000
H       -3.36220000      -2.05500000       0.84050000
H       -3.50790000      -2.33050000      -0.89770000
H       -2.60870000      -4.23980000       0.96240000
H       -1.01250000      -3.86360000      -1.47060000
