18
Properties=species:S:1:pos:R:3 gdb_84768=T pbc="F F F"
C       -0.02190000       1.61410000      -0.01500000
C        0.08040000       0.08670000      -0.01130000
C        0.84640000      -0.52200000      -1.16540000
C        1.60930000      -1.54480000      -0.79180000
C        1.49780000      -1.81540000       0.68760000
C        0.82970000      -0.51320000       1.22670000
O        1.80900000       0.43220000       1.62910000
C       -0.08680000      -0.78130000       2.35310000
N       -0.78140000      -0.99190000       3.25290000
H        0.96610000       2.07680000      -0.02830000
H       -0.57370000       1.94290000      -0.90110000
H       -0.55720000       1.97510000       0.86790000
H       -0.93970000      -0.32300000      -0.00980000
H        0.73280000      -0.15470000      -2.17910000
H        2.22120000      -2.15260000      -1.44760000
H        0.87810000      -2.69810000       0.89140000
H        2.46060000      -1.97990000       1.18490000
H        2.28500000       0.07160000       2.38540000
