18
Properties=species:S:1:pos:R:3 gdb_59622=T pbc="F F F"
C       -0.00510000       1.56750000      -0.10190000
C        0.02120000       0.04800000       0.06510000
O        0.78690000      -0.35070000       1.19080000
C       -1.38760000      -0.54910000       0.15510000
C       -1.41840000      -2.09040000       0.24540000
N       -2.43940000      -2.27640000       1.25930000
C       -2.61220000      -1.14720000       2.02360000
O       -3.20190000      -1.02750000       3.05990000
O       -1.98830000      -0.10170000       1.38620000
H        1.01600000       1.95560000      -0.12200000
H       -0.50560000       1.85350000      -1.03290000
H       -0.54250000       2.03580000       0.72880000
H        0.51830000      -0.40700000      -0.80120000
H        0.33030000      -0.00690000       1.96910000
H       -2.00930000      -0.19040000      -0.67390000
H       -1.69800000      -2.54660000      -0.70830000
H       -0.44090000      -2.47620000       0.55960000
H       -2.59570000      -3.16340000       1.70940000
