16
Properties=species:S:1:pos:R:3 gdb_6302=T pbc="F F F"
C       -0.15160000       1.63350000       0.10190000
C       -0.02750000       0.09870000       0.04320000
C        0.77810000      -0.47800000       1.22420000
C        2.26660000      -0.14330000       1.10000000
N        2.98360000      -0.31300000       2.24520000
O        2.77130000       0.23060000       0.05830000
C       -1.35080000      -0.52900000      -0.01140000
N       -2.39660000      -1.02060000      -0.04220000
H        0.84650000       2.07430000       0.07570000
H       -0.72040000       2.00870000      -0.75200000
H       -0.66240000       1.94930000       1.01650000
H        0.51200000      -0.16700000      -0.87250000
H        0.37840000      -0.11180000       2.17650000
H        0.68240000      -1.57000000       1.24380000
H        2.57540000      -0.68000000       3.08690000
H        3.98220000      -0.18970000       2.20520000
