22
Properties=species:S:1:pos:R:3 gdb_116008=T pbc="F F F"
C        0.05950000       1.58020000       0.22740000
C       -0.03740000       0.06510000       0.02210000
C        0.62710000      -0.45420000      -1.26400000
C        0.79490000      -1.98860000      -1.32640000
C        0.57350000      -2.31950000      -2.82360000
N       -0.18650000      -1.19930000      -3.39220000
C       -0.14050000      -0.23830000      -2.55900000
O       -0.70220000       0.96120000      -2.76120000
C       -1.39050000       1.12240000      -4.00400000
H        1.10620000       1.90340000       0.26360000
H       -0.43010000       2.12240000      -0.58410000
H       -0.41010000       1.87520000       1.17110000
H        0.43820000      -0.44290000       0.87060000
H       -1.08870000      -0.24950000       0.03160000
H        1.60450000       0.04000000      -1.37100000
H        1.75990000      -2.32990000      -0.94400000
H        0.01420000      -2.46160000      -0.71970000
H        1.52480000      -2.41770000      -3.36440000
H        0.03050000      -3.25830000      -2.97350000
H       -0.70730000       0.97340000      -4.84470000
H       -2.20580000       0.39850000      -4.08960000
H       -1.77990000       2.14120000      -4.00000000
