14
Properties=species:S:1:pos:R:3 gdb_4437=T pbc="F F F"
C        0.10890000       1.55650000       0.05830000
C        0.00180000       0.07520000       0.01510000
C       -1.07620000      -0.72290000       0.03930000
N       -2.43000000      -0.41470000       0.11240000
O       -0.66530000      -2.06260000      -0.02350000
C        0.71070000      -2.09730000      -0.08850000
O        1.37340000      -3.09750000      -0.15230000
N        1.10920000      -0.77860000      -0.06440000
H        0.68460000       1.89500000       0.92810000
H        0.60270000       1.95240000      -0.83720000
H       -0.89280000       1.98530000       0.11870000
H       -2.94450000      -0.75350000      -0.69560000
H       -2.86810000      -0.80630000       0.94130000
H        2.07730000      -0.51230000      -0.10090000
