18
Properties=species:S:1:pos:R:3 gdb_54215=T pbc="F F F"
N       -0.22160000       1.38270000       0.60980000
C        0.10680000       0.19600000       0.04690000
O        1.23490000      -0.10780000      -0.29960000
C       -1.06020000      -0.78260000      -0.13840000
O       -2.25000000      -0.16220000       0.35260000
C       -1.23610000      -1.19520000      -1.62720000
C       -1.68570000      -2.63420000      -1.52980000
C       -1.45140000      -3.14260000      -0.31970000
C       -0.80580000      -2.12930000       0.59610000
H        0.50230000       2.06550000       0.75660000
H       -1.17330000       1.57060000       0.87320000
H       -2.97330000      -0.78630000       0.23040000
H       -1.95050000      -0.52930000      -2.12310000
H       -0.28110000      -1.11620000      -2.15960000
H       -2.10120000      -3.17670000      -2.37140000
H       -1.64550000      -4.16570000      -0.01780000
H        0.27070000      -2.31380000       0.69100000
H       -1.22880000      -2.09590000       1.60590000
