22
Properties=species:S:1:pos:R:3 gdb_23009=T pbc="F F F"
C        0.07370000       1.99460000      -1.00800000
C        0.65470000       0.58340000      -0.94550000
C        0.16450000      -0.39020000      -2.00310000
N       -0.72340000       0.07580000      -2.79770000
O       -1.17920000      -0.83880000      -3.76810000
C        0.81340000      -1.72920000      -1.93170000
C        0.44990000      -2.98590000      -2.70120000
C        1.73710000      -2.28430000      -3.02170000
C        1.93980000      -1.56810000      -4.33820000
H        0.30040000       2.47340000      -1.96390000
H       -1.01370000       1.97920000      -0.90270000
H        0.49190000       2.60880000      -0.20450000
H        1.75110000       0.62220000      -1.01350000
H        0.44820000       0.13710000       0.03810000
H       -1.82850000      -0.30970000      -4.24220000
H        1.18970000      -1.91430000      -0.92920000
H        0.49150000      -3.91790000      -2.14690000
H       -0.35360000      -2.91770000      -3.41860000
H        2.63760000      -2.74830000      -2.62640000
H        1.00550000      -1.13440000      -4.69890000
H        2.67910000      -0.76460000      -4.24490000
H        2.30670000      -2.26730000      -5.09830000
