20
Properties=species:S:1:pos:R:3 gdb_116781=T pbc="F F F"
C        0.18180000       0.58920000       0.59520000
O       -0.25010000      -0.08670000      -0.57710000
C        0.65890000      -0.92360000      -1.12760000
N        0.37280000      -1.53340000      -2.19000000
C        1.32440000      -2.44770000      -2.79740000
C        2.51300000      -2.92340000      -1.98280000
O        3.42220000      -1.86630000      -1.76950000
C        2.31350000      -3.96130000      -0.90880000
C        3.03780000      -4.31590000      -2.19880000
H        0.45780000      -0.11520000       1.39030000
H        1.03340000       1.24980000       0.39070000
H       -0.66250000       1.19180000       0.93290000
H        1.60520000      -0.99040000      -0.58050000
H        0.76250000      -3.33300000      -3.11870000
H        1.70330000      -1.98180000      -3.71730000
H        4.21610000      -2.21860000      -1.35500000
H        2.91110000      -3.87500000      -0.00630000
H        1.31810000      -4.36030000      -0.74510000
H        2.54240000      -4.96280000      -2.91520000
H        4.11360000      -4.45840000      -2.14830000
