13
Properties=species:S:1:pos:R:3 gdb_132471=T pbc="F F F"
O       -0.13650000       1.32020000       0.01090000
C        0.05000000      -0.01520000       0.00240000
C        1.23600000      -0.68300000      -0.00790000
N        1.25290000      -2.06000000      -0.01570000
C        0.14960000      -2.69210000      -0.01310000
F        0.16030000      -4.02540000      -0.02060000
C       -1.19480000      -2.10580000      -0.00230000
N       -2.33390000      -2.68530000       0.00080000
N       -1.12030000      -0.71210000       0.00500000
H        0.72170000       1.75830000       0.00860000
H        2.18730000      -0.16740000      -0.01030000
H       -2.20220000      -3.69440000      -0.00560000
H       -1.99740000      -0.20940000       0.01270000
