13
Properties=species:S:1:pos:R:3 gdb_132570=T pbc="F F F"
C       -0.03070000       1.50570000      -0.01120000
C       -0.00270000       0.00680000      -0.00950000
N       -0.02530000      -0.64780000      -1.17500000
C        0.00120000      -1.96840000      -1.11160000
F       -0.02260000      -2.58970000      -2.27530000
N        0.04730000      -2.74950000      -0.04910000
C        0.07030000      -2.10460000       1.12070000
C        0.04640000      -0.72390000       1.17840000
F        0.06970000      -0.08820000       2.35210000
H        0.85390000       1.91090000       0.49120000
H       -0.06440000       1.87040000      -1.03760000
H       -0.90280000       1.87790000       0.53670000
H        0.10850000      -2.69790000       2.03010000
