17
Properties=species:S:1:pos:R:3 gdb_11362=T pbc="F F F"
C       -0.06160000       1.53890000      -0.06460000
C        0.03130000       0.01740000       0.04820000
C        0.76060000      -0.44780000       1.27270000
N        1.27590000       0.30290000       2.17010000
C        1.87820000      -0.59070000       3.16620000
C        1.62140000      -2.01730000       2.68720000
N        1.98340000      -3.08660000       3.26900000
N        0.91820000      -1.81880000       1.50020000
H        0.93370000       1.98770000      -0.09580000
H       -0.60210000       1.81990000      -0.97260000
H       -0.58180000       1.96130000       0.79800000
H       -0.97210000      -0.43080000       0.05470000
H        0.53490000      -0.40450000      -0.83280000
H        2.95190000      -0.39690000       3.26250000
H        1.43640000      -0.42370000       4.15450000
H        1.69390000      -3.91900000       2.75270000
H        0.58000000      -2.55350000       0.90170000
