13
Properties=species:S:1:pos:R:3 gdb_25143=T pbc="F F F"
O       -0.05950000      -0.08540000       0.00430000
C        0.01090000       1.12730000       0.00890000
N       -1.16660000       1.91620000       0.02940000
C       -1.16550000       3.27060000       0.03590000
N       -0.10100000       4.00580000       0.02440000
C        1.10310000       3.32040000       0.00410000
C        1.19720000       1.95460000      -0.00380000
C        2.27880000       4.13020000      -0.00850000
C        3.27830000       4.79970000      -0.01930000
H       -2.03670000       1.39990000       0.03920000
H       -2.14280000       3.74730000       0.05200000
H        2.15550000       1.45330000      -0.01960000
H        4.15700000       5.39650000      -0.02880000
