14
Properties=species:S:1:pos:R:3 gdb_27479=T pbc="F F F"
C        0.05980000       1.47230000      -0.05140000
C       -0.10540000      -0.00330000       0.05190000
C       -1.21410000      -0.71400000      -0.17410000
C       -1.19970000      -2.15030000      -0.02700000
N       -2.18750000      -2.91170000      -0.21560000
O        0.04080000      -2.69040000       0.35900000
C        1.15900000      -1.96620000       0.58650000
O        2.18340000      -2.47070000       0.91120000
O        1.06850000      -0.61170000       0.42710000
H        0.83610000       1.71610000      -0.78450000
H       -0.87660000       1.94520000      -0.34990000
H        0.38170000       1.88580000       0.91020000
H       -2.14020000      -0.24410000      -0.46900000
H       -1.93720000      -3.88730000      -0.05130000
