20
Properties=species:S:1:pos:R:3 gdb_35246=T pbc="F F F"
C       -0.36550000      -1.25360000       0.31450000
C       -0.21860000      -0.06320000       0.21700000
C       -0.07340000       1.35790000       0.05430000
C        0.54050000       2.18270000       1.14660000
N        1.25050000       1.99660000      -0.10810000
C        2.43000000       1.14900000      -0.08200000
C        2.95170000       0.64650000      -1.45110000
C        4.39420000       0.95110000      -0.96080000
C        3.78280000       1.87660000       0.12770000
H       -0.49560000      -2.30310000       0.41030000
H       -0.84400000       1.81880000      -0.55920000
H        0.16070000       3.18210000       1.34110000
H        0.89150000       1.64080000       2.02310000
H        2.32580000       0.30960000       0.62130000
H        2.70410000      -0.37610000      -1.74280000
H        2.64250000       1.33230000      -2.24460000
H        4.87320000       0.06980000      -0.52540000
H        5.08520000       1.40310000      -1.67500000
H        3.71060000       2.91150000      -0.21800000
H        4.22140000       1.86300000       1.12840000
