17
Properties=species:S:1:pos:R:3 gdb_49666=T pbc="F F F"
O        0.06960000       0.04370000       0.52890000
C        0.00470000       1.17650000       0.12060000
N        1.00890000       1.82220000      -0.58540000
C        2.41350000       1.72270000      -0.24230000
C        3.37710000       1.83850000      -1.41840000
N        3.24220000       3.19350000      -2.00510000
C        1.96090000       3.50940000      -2.64730000
C        2.20470000       3.92940000      -1.24320000
C        1.68570000       3.03850000      -0.14040000
H       -0.90140000       1.80600000       0.20990000
H        2.66890000       1.12690000       0.62930000
H        4.40410000       1.73190000      -1.05400000
H        3.20590000       1.06920000      -2.17740000
H        2.03250000       4.23850000      -3.45010000
H        1.24000000       2.71270000      -2.80340000
H        2.41940000       4.96230000      -0.98570000
H        1.40240000       3.46580000       0.81600000
