21
Properties=species:S:1:pos:R:3 gdb_96177=T pbc="F F F"
C       -0.07860000       1.57740000       0.02990000
C        0.06520000       0.05310000      -0.02630000
C        0.74990000      -0.43970000      -1.30970000
C        1.01900000      -1.93900000      -1.21550000
O        1.94770000      -2.21970000      -0.17800000
C        1.53630000      -1.83420000       1.11630000
C        2.67050000      -1.06410000       1.80870000
O        2.03190000       0.20050000       1.52310000
C        0.78990000      -0.47700000       1.20600000
H        0.90600000       2.05060000       0.07610000
H       -0.60110000       1.95030000      -0.85690000
H       -0.64400000       1.89230000       0.91330000
H       -0.93910000      -0.39650000       0.00080000
H        0.12030000      -0.22120000      -2.18010000
H        1.70550000       0.07800000      -1.45240000
H        0.07550000      -2.48990000      -1.05740000
H        1.47870000      -2.32430000      -2.13000000
H        1.08480000      -2.68180000       1.64760000
H        2.75150000      -1.24400000       2.88910000
H        3.65070000      -1.15750000       1.33300000
H        0.12070000      -0.44850000       2.07990000
