16
Properties=species:S:1:pos:R:3 gdb_36480=T pbc="F F F"
N        0.08180000      -1.17110000      -0.18930000
C        0.02850000      -0.01990000      -0.11830000
C       -0.04010000       1.43950000       0.00460000
N        1.28660000       2.01430000       0.11200000
C        2.09770000       1.78330000       1.32970000
C        2.62190000       3.23360000       1.20580000
C        1.38850000       3.47640000       0.28840000
C        1.54990000       4.25130000      -0.94050000
N        1.67620000       4.87300000      -1.90630000
H       -0.52920000       1.84430000      -0.88930000
H       -0.68770000       1.67900000       0.86980000
H        1.48610000       1.63840000       2.23370000
H        2.81430000       0.96380000       1.24540000
H        2.67140000       3.83470000       2.11200000
H        3.55980000       3.30220000       0.65570000
H        0.54900000       3.90340000       0.86210000
