14
Properties=species:S:1:pos:R:3 gdb_4359=T pbc="F F F"
C       -0.05970000       1.50890000      -0.03520000
C        0.01680000       0.00960000       0.03150000
N        0.14910000      -0.63890000      -1.14450000
C        0.21620000      -1.96090000      -1.07980000
N        0.16790000      -2.72480000       0.01610000
C        0.03750000      -2.06940000       1.16480000
O       -0.01580000      -2.79160000       2.29410000
C       -0.04450000      -0.67690000       1.23500000
H        0.84110000       1.90830000      -0.51170000
H       -0.90800000       1.81260000      -0.65670000
H       -0.16620000       1.95650000       0.95530000
H        0.32280000      -2.49110000      -2.02370000
H        0.05720000      -3.71890000       2.02460000
H       -0.15050000      -0.17470000       2.18800000
