23
Properties=species:S:1:pos:R:3 gdb_118080=T pbc="F F F"
C       -0.50380000       1.21890000      -0.62170000
O       -0.66090000      -0.17780000      -0.55910000
C       -0.82890000      -0.65690000       0.75940000
C       -0.99980000      -2.17700000       0.70670000
O       -1.00280000      -2.70980000       2.02080000
C       -2.27270000      -2.59280000      -0.04820000
C       -2.29550000      -4.09000000      -0.35390000
O       -3.34470000      -2.21030000       0.81850000
C       -4.61120000      -2.11100000       0.21010000
H       -0.38340000       1.49010000      -1.67360000
H       -1.38080000       1.74780000      -0.21570000
H        0.38480000       1.55490000      -0.06430000
H        0.04820000      -0.41960000       1.38120000
H       -1.71360000      -0.20110000       1.23240000
H       -0.13060000      -2.60110000       0.19160000
H       -1.89850000      -2.56870000       2.35410000
H       -2.32930000      -2.00910000      -0.97770000
H       -1.49350000      -4.34290000      -1.05470000
H       -2.14650000      -4.66280000       0.56520000
H       -3.24140000      -4.39390000      -0.81040000
H       -5.30260000      -1.72820000       0.96530000
H       -4.59520000      -1.41470000      -0.64170000
H       -4.98610000      -3.08180000      -0.14360000
