16
Properties=species:S:1:pos:R:3 gdb_44900=T pbc="F F F"
O        0.00370000       0.03440000      -0.06040000
C        0.02570000       1.23420000       0.03340000
N       -1.05250000       2.11320000       0.16800000
C       -0.42340000       3.44040000       0.01200000
C        0.63890000       3.21060000      -1.10100000
C        1.20440000       2.22080000      -0.01960000
C        0.73900000       3.28480000       1.05560000
C        1.61250000       4.42380000       1.23890000
C        2.33690000       5.36790000       1.41280000
H       -1.93520000       1.89210000      -0.26890000
H       -1.12090000       4.27480000       0.03650000
H        0.29080000       2.78580000      -2.04530000
H        1.29340000       4.06610000      -1.27050000
H        2.20520000       1.79950000      -0.04090000
H        0.42110000       2.87360000       2.01750000
H        2.97770000       6.20030000       1.56940000
