21
Properties=species:S:1:pos:R:3 gdb_89520=T pbc="F F F"
C       -0.78900000       1.21710000      -0.02970000
C        0.06530000      -0.04140000      -0.03060000
C        1.36250000      -0.06870000      -0.89710000
C        2.17020000      -0.59940000       0.33240000
C        2.75150000      -1.99100000       0.22620000
O        3.16010000       0.28630000       0.84130000
C        2.46830000       1.31940000       1.49540000
O        1.28440000       0.76510000       2.03930000
C        0.92370000      -0.34710000       1.23620000
H       -0.19940000       2.09710000       0.24330000
H       -1.22370000       1.39280000      -1.01950000
H       -1.61040000       1.13820000       0.69020000
H       -0.55970000      -0.91300000      -0.25420000
H        1.34900000      -0.72680000      -1.76920000
H        1.69930000       0.92120000      -1.21790000
H        3.57160000      -2.00910000      -0.49880000
H        3.13960000      -2.31860000       1.19500000
H        1.98910000      -2.70220000      -0.10600000
H        3.08940000       1.70820000       2.30810000
H        2.22120000       2.13410000       0.79200000
H        0.56830000      -1.14030000       1.89900000
