16
Properties=species:S:1:pos:R:3 gdb_50637=T pbc="F F F"
N       -0.18170000       1.42710000      -0.10460000
C       -0.04850000       0.17790000      -0.22180000
C       -1.25200000      -0.73790000      -0.09630000
O       -1.11640000      -1.96390000      -0.78990000
C        0.08440000      -2.60840000      -0.42810000
C        1.26060000      -1.74750000      -0.87950000
O        1.17810000      -0.41460000      -0.35800000
C        2.60020000      -2.31460000      -0.43690000
O        2.91870000      -3.45780000      -0.62980000
H        0.72740000       1.89250000      -0.15000000
H       -1.42020000      -0.92540000       0.97800000
H       -2.12630000      -0.22310000      -0.49370000
H        0.12980000      -2.77820000       0.66010000
H        0.12140000      -3.57370000      -0.93540000
H        1.25240000      -1.69620000      -1.97810000
H        3.25490000      -1.58370000       0.08490000
