19
Properties=species:S:1:pos:R:3 gdb_4771=T pbc="F F F"
C        0.20710000       1.52950000       0.25170000
C       -0.10580000       0.05700000      -0.07290000
C        0.56240000      -0.44710000      -1.31340000
C        0.05330000      -0.76100000      -2.55430000
C        1.13080000      -1.17450000      -3.39650000
C        1.04140000      -1.61160000      -4.82780000
C        2.27210000      -1.09800000      -2.63270000
N        1.92060000      -0.65700000      -1.37770000
H        1.28000000       1.68550000       0.40720000
H       -0.10430000       2.18110000      -0.57010000
H       -0.31140000       1.84940000       1.16130000
H        0.17150000      -0.56780000       0.78780000
H       -1.18630000      -0.06500000      -0.19880000
H       -0.98950000      -0.70200000      -2.83210000
H        0.63210000      -0.82310000      -5.47080000
H        2.02690000      -1.87770000      -5.22190000
H        0.39210000      -2.48740000      -4.94670000
H        3.29810000      -1.32420000      -2.87760000
H        2.56000000      -0.52010000      -0.61470000
