15
Properties=species:S:1:pos:R:3 gdb_128606=T pbc="F F F"
C       -0.05900000       1.38270000       0.08900000
O        0.00030000      -0.03110000       0.00450000
C        0.60970000      -0.56350000      -1.06370000
C        1.18000000       0.12410000      -2.08030000
N        1.76740000      -0.58980000      -3.10690000
N        1.81730000      -1.92630000      -3.17500000
N        1.29670000      -2.61090000      -2.24620000
C        0.65150000      -2.02670000      -1.11660000
N        0.13700000      -2.75040000      -0.19820000
H        0.94660000       1.82220000       0.12350000
H       -0.61090000       1.80970000      -0.75880000
H       -0.58590000       1.60940000       1.01580000
H        1.21980000       1.19980000      -2.16600000
H        2.20590000      -0.12930000      -3.88720000
H        0.28570000      -3.73190000      -0.44620000
