20
Properties=species:S:1:pos:R:3 gdb_82380=T pbc="F F F"
C        0.02200000       1.37770000      -0.05340000
N       -0.08990000      -0.04670000       0.16040000
C       -1.40140000      -0.61230000       0.03870000
C       -1.69730000      -1.43280000      -1.20620000
C       -1.38300000      -2.11430000       0.09630000
O       -0.11390000      -2.69450000       0.24390000
C        0.62670000      -2.09540000       1.27430000
C        1.90710000      -1.39890000       0.90650000
C        0.66490000      -0.59290000       1.24980000
H        1.07840000       1.66050000      -0.10610000
H       -0.45200000       1.64610000      -1.00310000
H       -0.45080000       1.98260000       0.74360000
H       -2.22910000      -0.08700000       0.52220000
H       -2.71700000      -1.48330000      -1.57270000
H       -0.91890000      -1.45070000      -1.95950000
H       -2.17890000      -2.63650000       0.62380000
H        0.56260000      -2.61070000       2.23070000
H        2.72560000      -1.43210000       1.61740000
H        2.18430000      -1.42140000      -0.14070000
H        0.64000000      -0.06000000       2.20390000
