16
Properties=species:S:1:pos:R:3 gdb_15393=T pbc="F F F"
C        0.08220000       1.35590000       0.19320000
O        0.01660000      -0.05060000       0.19270000
C       -1.24640000      -0.53700000      -0.20070000
C       -1.19580000      -2.03990000      -0.16360000
O       -1.55040000      -2.68580000       1.05530000
C       -2.41960000      -2.86450000      -0.07460000
C       -3.73840000      -2.29140000      -0.00610000
C       -4.85420000      -1.84530000       0.02480000
H        1.09250000       1.63480000       0.50110000
H       -0.11410000       1.77400000      -0.80730000
H       -0.64000000       1.79810000       0.89710000
H       -2.04360000      -0.17810000       0.46660000
H       -1.49060000      -0.20290000      -1.22520000
H       -0.33280000      -2.47450000      -0.66950000
H       -2.38100000      -3.86370000      -0.50810000
H       -5.83850000      -1.44770000       0.06140000
