17
Properties=species:S:1:pos:R:3 gdb_127445=T pbc="F F F"
C        0.00960000       1.37250000      -0.04650000
N        0.01580000      -0.07300000       0.03330000
N        0.00650000      -0.79530000      -1.10160000
C        0.01560000      -2.07190000      -0.69270000
C        0.03100000      -2.15170000       0.72160000
C        0.03070000      -0.84440000       1.15900000
C        0.04350000      -0.26640000       2.53530000
C        0.00980000      -3.14670000      -1.61720000
C        0.00520000      -4.08410000      -2.37220000
H        0.90330000       1.79610000       0.42310000
H       -0.00260000       1.63650000      -1.10290000
H       -0.87690000       1.78950000       0.44210000
H        0.04080000      -3.04270000       1.32770000
H        0.92820000       0.35700000       2.71090000
H       -0.83770000       0.35710000       2.72730000
H        0.05040000      -1.06980000       3.27440000
H        0.00110000      -4.90330000      -3.04720000
