13
Properties=species:S:1:pos:R:3 gdb_21108=T pbc="F F F"
C       -0.02620000       1.44680000       0.01720000
N       -0.01030000      -0.00500000       0.07030000
N       -0.03650000      -0.70360000      -1.07080000
N       -0.01460000      -1.98080000      -0.76880000
C        0.02570000      -2.10620000       0.57430000
C        0.02970000      -0.84420000       1.14660000
C        0.06620000      -0.42160000       2.54440000
O        0.10080000      -1.19460000       3.47390000
H        0.87690000       1.85980000       0.47360000
H       -0.06230000       1.72240000      -1.03620000
H       -0.90650000       1.84220000       0.53020000
H        0.04970000      -3.06400000       1.06770000
H        0.05940000       0.67770000       2.70990000
