16
Properties=species:S:1:pos:R:3 gdb_104570=T pbc="F F F"
O        0.62780000       0.40540000      -1.16590000
C        0.16950000       0.37560000       0.16700000
C       -1.18550000      -0.32450000       0.25570000
C       -1.19270000      -1.84720000      -0.05110000
C       -1.56520000      -1.97830000       1.40980000
N       -1.79840000      -2.93270000       2.18170000
O       -1.57930000      -0.60760000       1.63940000
C       -2.29060000       0.44320000      -0.44130000
O       -2.09890000       1.24910000      -1.31940000
H       -0.00210000       0.95220000      -1.65410000
H        0.89890000      -0.18940000       0.75550000
H        0.08880000       1.38010000       0.60800000
H       -1.95710000      -2.20210000      -0.74550000
H       -0.22270000      -2.25120000      -0.34210000
H       -2.03100000      -2.61350000       3.12340000
H       -3.31350000       0.20090000      -0.08220000
