19
Properties=species:S:1:pos:R:3 gdb_119659=T pbc="F F F"
C        0.02410000       1.49120000       0.09760000
C       -0.02230000      -0.02320000       0.00600000
O        0.74700000      -0.55710000       1.08110000
C        0.79620000      -1.92000000       1.12490000
C        1.40010000      -2.92630000       0.10960000
C        0.94080000      -3.81750000       1.28200000
C        1.28670000      -2.73810000       2.35560000
O       -0.01480000      -2.79760000       3.00680000
C       -0.31520000      -2.94810000       1.58950000
H        1.05500000       1.84840000       0.02290000
H       -0.55890000       1.93830000      -0.71310000
H       -0.38840000       1.83010000       1.05190000
H       -1.05790000      -0.38830000       0.07570000
H        0.38710000      -0.36900000      -0.95470000
H        0.86980000      -3.05970000      -0.83720000
H        2.47850000      -2.85780000      -0.05790000
H        1.01800000      -4.89400000       1.40740000
H        2.18080000      -2.61320000       2.96540000
H       -1.35150000      -3.08070000       1.28020000
