19
Properties=species:S:1:pos:R:3 gdb_9381=T pbc="F F F"
C        0.03070000       1.58080000      -0.00710000
C        0.00980000       0.05010000       0.00980000
C       -1.40970000      -0.52740000       0.01100000
C       -1.43110000      -2.05850000       0.03280000
C       -2.86050000      -2.62680000      -0.01550000
O       -3.58450000      -2.23160000      -1.16750000
C       -2.83840000      -4.10000000       0.11190000
N       -2.80060000      -5.25300000       0.18020000
H        1.05540000       1.96470000      -0.01120000
H       -0.47650000       1.97370000      -0.89510000
H       -0.47610000       1.99360000       0.87210000
H        0.55590000      -0.33440000      -0.86180000
H        0.55230000      -0.31540000       0.89160000
H       -1.95810000      -0.14640000       0.88380000
H       -1.95770000      -0.17420000      -0.86990000
H       -0.86680000      -2.46210000      -0.81890000
H       -0.93760000      -2.43760000       0.93580000
H       -3.43420000      -2.22900000       0.82970000
H       -3.14970000      -2.61060000      -1.94050000
