23
Properties=species:S:1:pos:R:3 gdb_66237=T pbc="F F F"
C        0.05500000       1.59450000      -0.13290000
C       -0.01690000       0.06600000      -0.03250000
C        0.73140000      -0.63020000      -1.19850000
C        2.12890000      -0.88890000      -0.61850000
C        1.79180000      -1.17530000       0.84520000
O        0.69590000      -0.32440000       1.16220000
C       -1.46700000      -0.38820000       0.07330000
C       -1.83560000      -1.67160000       0.76820000
C       -2.19680000      -0.34250000       1.38900000
H        1.08770000       1.92870000      -0.27290000
H       -0.54340000       1.95900000      -0.97470000
H       -0.32970000       2.04750000       0.78460000
H        0.24080000      -1.57850000      -1.44140000
H        0.74460000      -0.01800000      -2.10360000
H        2.65560000      -1.71390000      -1.10490000
H        2.75520000       0.00590000      -0.69630000
H        1.51070000      -2.23220000       0.97870000
H        2.60900000      -0.95290000       1.53910000
H       -2.05250000      -0.13670000      -0.80800000
H       -2.62600000      -2.28010000       0.34250000
H       -1.03880000      -2.23040000       1.24510000
H       -1.62460000      -0.04240000       2.25910000
H       -3.23690000      -0.03550000       1.39550000
