17
Properties=species:S:1:pos:R:3 gdb_126176=T pbc="F F F"
C       -0.02910000       1.57130000       0.01200000
C       -0.09730000       0.04620000      -0.08270000
C        0.75530000      -0.50400000      -1.24230000
O        2.12130000      -0.14160000      -1.13840000
C        0.59910000      -1.99500000      -1.35640000
N       -0.17610000      -2.68240000      -2.14090000
C        0.10210000      -3.97010000      -1.74970000
N        0.98420000      -4.08980000      -0.79720000
O        1.32170000      -2.75520000      -0.52240000
H        1.00540000       1.90630000       0.11920000
H       -0.44120000       2.03990000      -0.88810000
H       -0.60140000       1.93320000       0.87080000
H        0.25200000      -0.41290000       0.85180000
H       -1.13210000      -0.28640000      -0.22530000
H        0.40270000      -0.07700000      -2.18580000
H        2.48810000      -0.57620000      -0.35950000
H       -0.36270000      -4.83950000      -2.19170000
