17
Properties=species:S:1:pos:R:3 gdb_30269=T pbc="F F F"
O        0.04170000       1.40950000       0.02610000
C        0.01310000      -0.00490000      -0.02440000
C       -1.44670000      -0.54180000      -0.12090000
N       -1.60990000      -0.68620000      -1.55740000
C       -2.61990000      -0.88490000      -2.46860000
C       -1.97490000      -1.00320000      -3.67830000
N       -0.60600000      -0.89430000      -3.53270000
C       -0.43170000      -0.71020000      -2.24480000
C        0.71860000      -0.55920000      -1.29580000
H       -0.28780000       1.74620000      -0.81550000
H        0.49320000      -0.33660000       0.89820000
H       -1.56690000      -1.50600000       0.38790000
H       -2.14850000       0.17630000       0.31000000
H       -3.66040000      -0.90840000      -2.19200000
H       -2.42310000      -1.15230000      -4.64930000
H        1.49550000       0.12810000      -1.63770000
H        1.19700000      -1.52590000      -1.09500000
