14
Properties=species:S:1:pos:R:3 gdb_25226=T pbc="F F F"
N       -0.03660000       1.31220000       0.01120000
C       -0.07530000       0.05160000       0.00380000
O        1.06490000      -0.76200000      -0.00700000
C        0.74160000      -2.16660000      -0.01380000
C       -0.74590000      -2.14200000      -0.00600000
C       -1.21140000      -0.86320000       0.00410000
N       -2.58470000      -0.82140000       0.01140000
C       -2.93430000      -2.08570000       0.00580000
N       -1.84790000      -2.94560000      -0.00520000
H        0.93010000       1.64110000       0.00820000
H        1.18110000      -2.62710000      -0.90800000
H        1.19030000      -2.63790000       0.87010000
H       -3.94670000      -2.46220000       0.00880000
H       -1.88670000      -3.95130000      -0.01110000
