16
Properties=species:S:1:pos:R:3 gdb_24781=T pbc="F F F"
N       -0.17640000       1.37550000       0.01050000
C       -0.00780000       0.10560000       0.00310000
C        1.19440000      -0.72690000      -0.00730000
C        1.13460000      -2.08710000      -0.01420000
N       -0.02860000      -2.84800000      -0.01240000
C       -1.07510000      -2.09590000      -0.00320000
C       -2.58830000      -2.21810000       0.00360000
C       -2.58080000      -0.64500000       0.01190000
N       -1.11580000      -0.74100000       0.00420000
H        0.72690000       1.84700000       0.00850000
H        2.15510000      -0.22430000      -0.00950000
H        2.05390000      -2.66590000      -0.02190000
H       -3.01760000      -2.67820000      -0.88800000
H       -3.00880000      -2.68760000       0.89450000
H       -2.98690000      -0.15900000      -0.87770000
H       -2.97820000      -0.16840000       0.91040000
