18
Properties=species:S:1:pos:R:3 gdb_90693=T pbc="F F F"
N        0.09590000       1.07980000       0.08710000
H        0.20680000       0.06400000       0.15950000
H        1.02660000       1.49590000       0.01440000
H       -0.42740000       1.29690000      -0.76380000
C       -0.64320000       1.60120000       1.34540000
C       -1.94710000       0.78720000       1.53900000
C       -1.31010000       0.12930000       2.78200000
C       -0.01890000       0.93310000       2.56700000
C       -0.88970000       1.17490000       3.78260000
C       -1.64720000       2.51840000       4.03600000
O       -1.89610000       2.75200000       5.21890000
O       -1.90760000       3.16950000       2.98720000
H       -0.70030000       2.68410000       1.27370000
H       -2.82600000       1.40610000       1.70590000
H       -2.12300000       0.07130000       0.72410000
H       -1.43080000      -0.91270000       3.05180000
H        1.02900000       0.65870000       2.65090000
H       -0.46520000       0.73090000       4.67950000
