23
Properties=species:S:1:pos:R:3 gdb_91384=T pbc="F F F"
C       -0.93650000       1.13610000      -0.21010000
C        0.02720000      -0.04160000      -0.22540000
C        1.38840000       0.12090000      -0.96580000
C        2.11660000      -0.50880000       0.26010000
O        3.09810000       0.26610000       0.91000000
C        2.50900000       1.13190000       1.88830000
C        2.55800000       2.59200000       1.43630000
C        1.07840000       0.59470000       2.16830000
C        0.79600000      -0.45540000       1.07720000
H       -0.45140000       2.05880000       0.12500000
H       -1.32970000       1.32320000      -1.21560000
H       -1.79040000       0.94940000       0.45120000
H       -0.50230000      -0.92070000      -0.60740000
H        1.49000000      -0.41260000      -1.91430000
H        1.68270000       1.16160000      -1.12460000
H        2.54240000      -1.49730000       0.06670000
H        3.13060000       1.03700000       2.78760000
H        1.90330000       2.77460000       0.57870000
H        2.24140000       3.25220000       2.25150000
H        3.57780000       2.86450000       1.15040000
H        1.03960000       0.12460000       3.15420000
H        0.34690000       1.40730000       2.17670000
H        0.45280000      -1.39410000       1.51570000
