20
Properties=species:S:1:pos:R:3 gdb_61075=T pbc="F F F"
C        0.23530000       1.45520000      -0.05580000
N       -0.11580000       0.04710000       0.03820000
C       -0.31380000      -0.51230000       1.27050000
O       -0.30150000       0.09510000       2.32360000
C       -0.05460000      -0.76070000      -1.17970000
C        1.23920000      -1.62870000      -1.30930000
C        0.71330000      -3.08260000      -1.32030000
O       -0.60520000      -3.02730000      -0.78860000
C       -1.16730000      -1.82700000      -1.28960000
H        1.26790000       1.58930000      -0.40290000
H       -0.43360000       1.97580000      -0.75070000
H        0.13590000       1.88840000       0.93920000
H       -0.49420000      -1.59960000       1.20950000
H       -0.13570000      -0.05530000      -2.00910000
H        1.80250000      -1.39660000      -2.21590000
H        1.89110000      -1.44150000      -0.45350000
H        0.68870000      -3.47920000      -2.34760000
H        1.29570000      -3.76740000      -0.70020000
H       -2.06000000      -1.58650000      -0.70960000
H       -1.45300000      -1.95040000      -2.34740000
