17
Properties=species:S:1:pos:R:3 gdb_128846=T pbc="F F F"
C       -0.18760000       1.35590000       0.06520000
O        0.04210000      -0.03100000      -0.01340000
C        0.63820000      -0.55390000       1.14980000
C        0.82380000      -2.05900000       0.94000000
C        1.42120000      -2.72170000       2.13420000
N        2.66130000      -3.20090000       2.18610000
N        2.70780000      -3.65730000       3.43070000
N        1.59430000      -3.48850000       4.12700000
N        0.76310000      -2.89180000       3.31460000
H        0.74970000       1.91840000       0.20120000
H       -0.65060000       1.66400000      -0.87520000
H       -0.86400000       1.61150000       0.89600000
H        1.61330000      -0.07380000       1.34010000
H        0.00560000      -0.37320000       2.03380000
H       -0.15470000      -2.50080000       0.72760000
H        1.46700000      -2.22970000       0.07370000
H        3.52290000      -4.10800000       3.81880000
