27
Properties=species:S:1:pos:R:3 gdb_122961=T pbc="F F F"
C       -0.09200000       1.61300000       0.03230000
C       -0.02910000       0.08350000       0.00660000
C        0.70130000      -0.47180000      -1.22100000
C        0.76030000      -2.00210000      -1.25420000
C        1.49610000      -2.55810000      -2.47740000
C        1.49980000      -4.09030000      -2.54940000
O        0.17060000      -4.61620000      -2.55450000
C        2.31200000      -4.61810000      -3.73930000
C        2.38890000      -6.14570000      -3.78950000
H        0.91260000       2.05090000       0.03910000
H       -0.61430000       2.00300000      -0.84850000
H       -0.61910000       1.97770000       0.91970000
H        0.46780000      -0.27840000       0.91650000
H       -1.04730000      -0.32670000       0.03630000
H        0.20670000      -0.10590000      -2.13220000
H        1.72180000      -0.06360000      -1.25020000
H        1.25290000      -2.36720000      -0.34210000
H       -0.25440000      -2.41610000      -1.23430000
H        1.03630000      -2.16470000      -3.39760000
H        2.53450000      -2.20070000      -2.48340000
H        1.93660000      -4.48610000      -1.62200000
H       -0.26120000      -4.29730000      -3.35560000
H        1.86040000      -4.23490000      -4.66660000
H        3.32140000      -4.18990000      -3.69530000
H        2.91390000      -6.54150000      -2.91300000
H        1.38620000      -6.58100000      -3.79710000
H        2.92270000      -6.48810000      -4.68110000
