16
Properties=species:S:1:pos:R:3 gdb_44330=T pbc="F F F"
O        0.14210000       0.19190000       0.51480000
C        0.08630000       1.28650000       0.04420000
C       -1.10400000       2.26830000       0.08590000
C       -0.69910000       3.39210000      -0.84060000
C        0.55610000       4.25980000      -0.59970000
C        1.44680000       3.96890000       0.56550000
C        1.82190000       2.68920000       0.52120000
N        1.22050000       1.97540000      -0.59740000
C        0.62770000       3.02090000      -1.45080000
H       -2.02210000       1.77440000      -0.24490000
H       -1.25180000       2.55400000       1.13290000
H       -1.45830000       3.84450000      -1.46740000
H        0.54370000       5.24610000      -1.04800000
H        1.76590000       4.70180000       1.29340000
H        2.41150000       2.11750000       1.22400000
H        0.83660000       2.97430000      -2.51250000
