17
Properties=species:S:1:pos:R:3 gdb_125873=T pbc="F F F"
C       -0.09060000       1.53460000      -0.18290000
C       -0.02060000       0.03690000       0.00290000
C        1.26520000      -0.71300000      -0.22080000
C        0.71190000      -0.59430000       1.18110000
C        1.39280000       0.21600000       2.20500000
C        2.64400000       0.74510000       2.28130000
O        2.78390000       1.39660000       3.43340000
N        1.53680000       1.25030000       4.12190000
N        0.77210000       0.57580000       3.39120000
H        0.83510000       2.02200000       0.13690000
H       -0.25370000       1.78740000      -1.23590000
H       -0.91080000       1.96840000       0.39880000
H       -0.92630000      -0.49180000      -0.28120000
H        1.24000000      -1.68730000      -0.69530000
H        2.14320000      -0.12480000      -0.46940000
H        0.23910000      -1.48280000       1.58850000
H        3.49480000       0.72730000       1.62080000
