20
Properties=species:S:1:pos:R:3 gdb_88805=T pbc="F F F"
C       -0.27150000       1.40030000      -0.14190000
N        0.01650000      -0.01720000       0.00510000
C        1.38000000      -0.46270000      -0.24750000
C        0.82060000      -0.49440000       1.13550000
C        1.37380000       0.39890000       2.21450000
C        0.58610000       0.58700000       3.55380000
C        1.88100000       0.31310000       4.37570000
C        2.53730000      -0.16190000       3.06890000
O        3.50830000      -0.81000000       2.81020000
H        0.57300000       2.07060000       0.08650000
H       -0.56820000       1.58780000      -1.17880000
H       -1.11200000       1.67200000       0.50510000
H        1.49300000      -1.37750000      -0.82280000
H        2.13510000       0.29660000      -0.45230000
H        0.47210000      -1.45540000       1.51350000
H        1.68560000       1.36730000       1.80780000
H        0.11510000       1.55970000       3.69960000
H       -0.16600000      -0.19340000       3.69360000
H        2.35840000       1.22100000       4.75900000
H        1.83730000      -0.42120000       5.18370000
