18
Properties=species:S:1:pos:R:3 gdb_102287=T pbc="F F F"
C       -0.56830000       0.77910000       0.79830000
O       -0.01050000      -0.47090000       0.42380000
C        0.55500000      -0.46970000      -0.87920000
C        1.40690000      -1.73720000      -1.05650000
C        2.69940000      -1.79040000      -0.22840000
N        2.54160000      -1.53340000       1.09820000
O        3.76590000      -2.07860000      -0.73340000
C       -0.55940000      -0.48880000      -1.92620000
O       -0.46180000      -0.03120000      -3.03260000
H        0.19660000       1.56810000       0.81670000
H       -1.37110000       1.08900000       0.11510000
H       -0.98590000       0.65660000       1.79960000
H        1.17240000       0.42600000      -1.04190000
H        0.78910000      -2.60910000      -0.80740000
H        1.70840000      -1.82040000      -2.10170000
H        1.65310000      -1.21900000       1.45410000
H        3.36140000      -1.52950000       1.68230000
H       -1.48040000      -1.00800000      -1.57120000
