14
Properties=species:S:1:pos:R:3 gdb_129139=T pbc="F F F"
N       -0.03990000       1.21640000      -0.23170000
C       -0.07830000      -0.01150000       0.07550000
N        1.15000000      -0.73820000       0.37190000
N        1.22090000      -1.97260000       0.16830000
N        0.07190000      -2.54280000      -0.34360000
C       -0.44440000      -3.91560000      -0.09330000
C       -1.86630000      -3.26590000       0.05490000
C       -1.13780000      -1.93950000      -0.03790000
N       -1.29540000      -0.70660000       0.22820000
H        0.93540000       1.52290000      -0.24240000
H       -0.28940000      -4.59310000      -0.93330000
H       -0.05350000      -4.34860000       0.82910000
H       -2.55240000      -3.46580000      -0.76950000
H       -2.37080000      -3.44370000       1.00550000
