16
Properties=species:S:1:pos:R:3 gdb_47211=T pbc="F F F"
N       -0.18770000       1.39560000       0.08680000
C       -0.05710000       0.15160000      -0.09800000
O        1.14340000      -0.41950000      -0.36790000
C        1.23980000      -1.80330000      -0.73820000
C        0.00480000      -2.33800000      -1.39900000
C       -1.18620000      -1.84930000      -1.07870000
C       -1.27560000      -0.76540000      -0.01940000
C       -1.38630000      -1.36220000       1.31590000
C       -1.46930000      -1.87090000       2.40150000
H        0.71790000       1.86160000      -0.00100000
H        2.10470000      -1.86090000      -1.40550000
H        1.47870000      -2.38920000       0.16150000
H        0.12820000      -3.13910000      -2.12050000
H       -2.10780000      -2.21260000      -1.51900000
H       -2.14140000      -0.12000000      -0.18880000
H       -1.54960000      -2.30610000       3.36680000
