18
Properties=species:S:1:pos:R:3 gdb_26187=T pbc="F F F"
C       -0.23030000       1.11590000       0.39810000
C       -0.85040000       0.21920000      -0.61310000
N        2.51330000      -0.63320000       1.80510000
H        2.17860000      -1.54020000       2.11990000
H        3.31710000      -0.82310000       1.21230000
H        2.88010000      -0.16950000       2.63210000
C       -2.10930000      -0.27140000      -0.60040000
C       -2.85890000      -1.12460000      -1.42880000
C       -4.17880000      -1.29640000      -0.89430000
O       -5.17130000      -1.93460000      -1.25210000
C       -4.08670000      -0.45560000       0.30430000
O       -2.93210000       0.13000000       0.49030000
H        0.64610000       0.62550000       0.85020000
H        0.14120000       2.03060000      -0.08320000
H       -0.93280000       1.39440000       1.18440000
H       -0.23340000      -0.09430000      -1.45140000
H       -2.47750000      -1.57600000      -2.33200000
H       -4.84800000      -0.25710000       1.05150000
