19
Properties=species:S:1:pos:R:3 gdb_49556=T pbc="F F F"
O       -0.66020000       0.62680000       0.56180000
C        0.08170000       1.01610000      -0.30660000
C        1.22930000       1.96870000      -0.13550000
C        1.21660000       3.37470000      -0.80290000
C       -0.16020000       4.04270000      -0.68950000
C       -0.47070000       4.33540000       0.80220000
C        0.22760000       3.35130000       1.77880000
C        1.50450000       2.81270000       1.12810000
O        2.07330000       3.85400000       0.26860000
H       -0.04030000       0.65370000      -1.35520000
H        2.14080000       1.44740000      -0.45210000
H        1.68180000       3.48480000      -1.78570000
H       -0.16910000       4.97800000      -1.25790000
H       -0.91870000       3.39470000      -1.14590000
H       -0.10450000       5.34080000       1.02110000
H       -1.55010000       4.35040000       0.97430000
H        0.48170000       3.87780000       2.70420000
H       -0.41610000       2.50990000       2.04440000
H        2.23650000       2.43230000       1.84400000
