29
Properties=species:S:1:pos:R:3 gdb_117715=T pbc="F F F"
C        0.07380000       1.67500000       0.17490000
C       -0.00120000       0.15430000       0.00040000
C        0.68750000      -0.59480000       1.14940000
C        0.68890000      -2.14670000       1.10340000
C       -0.75610000      -2.68130000       1.11200000
C        1.41350000      -2.64160000      -0.16310000
C        1.44440000      -2.62110000       2.37420000
C        1.59930000      -4.13240000       2.59200000
C        2.36330000      -4.45520000       3.88060000
H        1.11350000       2.01960000       0.21100000
H       -0.42080000       2.19660000      -0.65060000
H       -0.40930000       1.99200000       1.10610000
H       -1.05360000      -0.14510000      -0.06860000
H        0.45840000      -0.11770000      -0.95710000
H        1.73120000      -0.25410000       1.20700000
H        0.22090000      -0.28160000       2.09430000
H       -1.31390000      -2.34140000       0.23440000
H       -0.77840000      -3.77510000       1.10050000
H       -1.29770000      -2.34500000       2.00360000
H        2.44630000      -2.27600000      -0.19700000
H        1.44460000      -3.73440000      -0.20530000
H        0.90870000      -2.30110000      -1.07200000
H        2.44660000      -2.16920000       2.36410000
H        0.93650000      -2.19610000       3.25180000
H        0.61390000      -4.61120000       2.63230000
H        2.12540000      -4.58450000       1.74290000
H        2.46650000      -5.53550000       4.02380000
H        3.37070000      -4.02400000       3.86350000
H        1.84830000      -4.05070000       4.75940000
