21
Properties=species:S:1:pos:R:3 gdb_59439=T pbc="F F F"
C        0.19160000       0.35420000      -2.48440000
C        0.14280000      -0.16730000      -1.04150000
C        0.26480000       0.97180000      -0.02060000
C       -1.14180000      -0.94120000      -0.82040000
N       -1.20640000      -2.30930000      -1.32440000
C       -1.27890000      -2.09630000       0.13060000
C       -0.12190000      -2.60540000       0.95300000
N       -0.45690000      -2.89310000       2.24900000
O        1.00790000      -2.74710000       0.52940000
H        1.13170000       0.88120000      -2.67690000
H        0.11270000      -0.47180000      -3.19720000
H       -0.62800000       1.05650000      -2.68320000
H        0.96860000      -0.86760000      -0.89300000
H       -0.56650000       1.68210000      -0.11300000
H        0.26710000       0.58980000       1.00550000
H        1.19360000       1.53110000      -0.17110000
H       -2.04600000      -0.33460000      -0.91280000
H       -2.13090000      -2.52990000      -1.68440000
H       -2.25460000      -2.20440000       0.60270000
H       -1.36400000      -2.69170000       2.63070000
H        0.28450000      -3.15040000       2.87960000
