19
Properties=species:S:1:pos:R:3 gdb_94178=T pbc="F F F"
C        0.15530000       1.53880000      -0.13820000
C        0.07010000       0.03930000       0.02800000
O        0.93590000      -0.67700000      -0.89100000
C        1.40170000      -1.53720000       0.15920000
C        0.75600000      -0.65210000       1.25580000
N        1.75210000       0.09040000       2.01980000
C       -0.21270000      -1.40650000       2.17480000
N        0.20030000      -1.51440000       3.46370000
O       -1.25490000      -1.87590000       1.75410000
H        1.17320000       1.90950000       0.01610000
H       -0.15270000       1.81250000      -1.15200000
H       -0.51650000       2.04420000       0.56470000
H       -0.96240000      -0.31230000      -0.07110000
H        0.97270000      -2.54370000       0.09290000
H        2.49620000      -1.60350000       0.19920000
H        2.50020000       0.40800000       1.41140000
H        1.33940000       0.92340000       2.43220000
H        1.12800000      -1.20550000       3.70640000
H       -0.33450000      -2.09120000       4.09160000
