18
Properties=species:S:1:pos:R:3 gdb_37747=T pbc="F F F"
C       -0.03770000       1.55650000       0.00750000
N        1.47040000       1.24680000       0.00550000
C        1.18660000       0.02190000       0.90620000
C        1.86880000      -0.97700000      -0.02760000
O        1.27510000      -2.26570000      -0.00710000
C       -0.06110000      -2.32640000      -0.51380000
C       -0.97910000      -1.16800000      -0.03930000
C       -0.06180000       0.02850000      -0.02290000
C        1.20110000       0.05730000      -0.94620000
H       -0.37380000       2.06350000       0.91830000
H       -0.37250000       2.10130000      -0.88180000
H        1.20070000       0.10350000       1.99440000
H        2.95380000      -1.10080000      -0.01510000
H       -0.02700000      -2.30640000      -1.61350000
H       -0.44830000      -3.30120000      -0.20830000
H       -1.81880000      -1.06800000      -0.73630000
H       -1.39210000      -1.35920000       0.95760000
H        1.24280000       0.19570000      -2.02800000
