18
Properties=species:S:1:pos:R:3 gdb_53230=T pbc="F F F"
C       -0.01750000       1.54100000       0.09230000
C        0.01270000       0.08670000       0.06690000
C        0.03750000      -1.11720000       0.05310000
C        0.03060000      -2.56410000       0.01840000
N        0.25930000      -3.28380000       1.31010000
C       -0.86870000      -4.23220000       1.09000000
C       -1.80960000      -4.43720000       2.26730000
C       -1.33290000      -3.31960000      -0.05630000
O       -2.32930000      -3.20000000      -0.69610000
H        0.73180000       1.96990000      -0.58220000
H       -0.99830000       1.92110000      -0.21370000
H        0.18500000       1.92050000       1.09980000
H        0.66760000      -2.92880000      -0.80450000
H        1.17190000      -3.72000000       1.37450000
H       -0.55860000      -5.20510000       0.67480000
H       -2.12370000      -3.47340000       2.67570000
H       -2.69690000      -4.99260000       1.94790000
H       -1.31640000      -5.00330000       3.06340000
