18
Properties=species:S:1:pos:R:3 gdb_9855=T pbc="F F F"
O       -0.05290000       1.45570000       0.04210000
C       -0.08580000       0.08040000       0.36030000
C       -1.40140000      -0.55060000      -0.11290000
O       -1.59750000      -0.22260000      -1.49120000
C       -1.43950000      -2.05440000       0.08510000
O       -0.56830000      -2.72090000      -0.80690000
C       -1.55680000      -2.62820000       1.46760000
C       -2.70640000      -2.75420000       0.48650000
H       -0.43060000       1.51700000      -0.84540000
H        0.75610000      -0.46620000      -0.09760000
H        0.01300000      -0.01130000       1.44690000
H       -2.23360000      -0.08100000       0.42230000
H       -0.95990000      -0.76640000      -1.97350000
H       -1.10400000      -3.10080000      -1.51040000
H       -0.97430000      -3.51870000       1.67150000
H       -1.66450000      -1.94860000       2.30610000
H       -3.59840000      -2.15790000       0.64400000
H       -2.88870000      -3.73760000       0.06460000
