16
Properties=species:S:1:pos:R:3 gdb_23221=T pbc="F F F"
O       -0.10190000       1.31600000      -0.15470000
N        0.01860000      -0.07590000      -0.05180000
C       -1.11280000      -0.64320000      -0.00380000
C       -1.34160000      -2.13150000       0.08800000
C       -2.40040000      -2.35100000      -1.02320000
C       -3.21060000      -1.53010000      -0.00230000
O       -2.43970000      -2.17470000       1.07450000
C       -2.56180000      -0.12230000       0.01060000
O       -2.90020000       0.60720000       1.16500000
H        0.81850000       1.60100000      -0.17090000
H       -0.50640000      -2.79620000       0.29460000
H       -2.21290000      -1.93740000      -2.01710000
H       -2.73310000      -3.38850000      -1.07060000
H       -4.29050000      -1.59110000       0.12340000
H       -2.80720000       0.50270000      -0.85110000
H       -2.71410000       0.02130000       1.91100000
