16
Properties=species:S:1:pos:R:3 gdb_11723=T pbc="F F F"
C       -0.07680000       1.54180000      -0.00220000
C        0.11780000       0.04320000       0.07250000
O        1.16330000      -0.45620000      -0.81950000
C        1.74420000      -1.19730000       0.23930000
C        2.25290000      -0.27510000       1.32530000
C        0.79270000      -0.60350000       1.28840000
C        2.18760000      -2.58550000       0.06430000
O        2.16770000      -3.19800000      -0.97370000
H        0.82960000       2.08200000       0.28270000
H       -0.34300000       1.83260000      -1.02300000
H       -0.89070000       1.84840000       0.66330000
H       -0.81680000      -0.47990000      -0.16450000
H        2.80570000      -0.75100000       2.12920000
H        2.62700000       0.69580000       1.01650000
H        0.28180000      -1.10880000       2.09700000
H        2.55950000      -3.03810000       1.01340000
