14
Properties=species:S:1:pos:R:3 gdb_33555=T pbc="F F F"
C       -0.10160000      -1.24740000      -0.07330000
C       -0.03150000      -0.05020000      -0.03210000
C        0.03880000       1.40700000       0.06400000
C       -0.58460000       1.94390000       1.41110000
N        0.38290000       2.98500000       1.76060000
C        1.52070000       2.73400000       1.03050000
N        1.45210000       1.89530000       0.06550000
C       -0.65690000       2.01630000      -1.09300000
N       -1.21420000       2.51090000      -1.97540000
H       -0.15510000      -2.30700000      -0.12940000
H       -1.58950000       2.34430000       1.27140000
H       -0.61170000       1.13880000       2.15300000
H        0.46380000       3.28240000       2.72110000
H        2.43220000       3.27600000       1.26490000
