13
Properties=species:S:1:pos:R:3 gdb_15026=T pbc="F F F"
N       -0.26390000      -1.03020000       0.11410000
C       -0.08330000       0.10750000       0.05040000
C        0.09970000       1.57010000      -0.00360000
C        1.53320000       1.91530000      -0.04250000
N        2.64520000       2.22240000      -0.05250000
N       -0.57490000       2.11290000      -1.18220000
C       -2.00150000       2.39970000      -1.00480000
C       -1.01040000       3.50740000      -1.06200000
H       -0.30200000       1.97800000       0.94350000
H       -2.62210000       2.16410000      -1.86240000
H       -2.45220000       2.17820000      -0.03950000
H       -0.79170000       4.03430000      -0.13540000
H       -0.89040000       4.09990000      -1.96250000
