20
Properties=species:S:1:pos:R:3 gdb_16025=T pbc="F F F"
C        0.07420000       1.49180000       0.00930000
O        1.21940000       0.63380000      -0.00630000
C       -0.09190000       0.03460000       0.00310000
C       -0.43650000      -0.71380000       1.27740000
C        0.16850000      -2.12790000       1.25650000
C       -0.24020000      -2.89260000      -0.01120000
C        0.14430000      -2.11430000      -1.27820000
C       -0.46080000      -0.70020000      -1.27240000
H       -0.07820000       2.05070000       0.93260000
H       -0.09570000       2.06060000      -0.90490000
H       -0.07550000      -0.14830000       2.14200000
H       -1.52990000      -0.78150000       1.36360000
H        1.26200000      -2.04220000       1.29190000
H       -0.13540000      -2.67900000       2.15310000
H        0.22610000      -3.88400000      -0.02100000
H       -1.32690000      -3.05930000      -0.00170000
H        1.23690000      -2.02810000      -1.33360000
H       -0.17680000      -2.65590000      -2.17470000
H       -1.55570000      -0.76700000      -1.33840000
H       -0.11640000      -0.12530000      -2.13770000
