19
Properties=species:S:1:pos:R:3 gdb_9373=T pbc="F F F"
C        0.11030000       1.58440000      -0.00430000
C       -0.01330000       0.04810000      -0.03390000
C       -1.47520000      -0.46030000       0.00790000
C       -2.20140000      -0.12430000       1.31320000
C       -3.59700000      -0.73430000       1.37180000
O       -4.18390000      -0.34720000       2.60350000
C        0.66070000      -0.48650000      -1.22300000
N        1.18030000      -0.90520000      -2.16690000
H        1.15700000       1.89090000      -0.06990000
H       -0.42890000       2.03110000      -0.84480000
H       -0.30420000       1.98170000       0.92480000
H        0.51520000      -0.36060000       0.83770000
H       -2.01720000      -0.04020000      -0.84830000
H       -1.46530000      -1.54690000      -0.13590000
H       -1.62650000      -0.49210000       2.17240000
H       -2.30100000       0.95870000       1.44100000
H       -4.19320000      -0.38010000       0.51470000
H       -3.52750000      -1.83130000       1.28750000
H       -5.06510000      -0.72890000       2.65170000
