20
Properties=species:S:1:pos:R:3 gdb_96383=T pbc="F F F"
O        0.02470000       1.45710000       0.03180000
C       -0.02000000       0.03870000      -0.02200000
C        0.70400000      -0.55310000       1.19190000
O        0.02820000      -0.16010000       2.37900000
C       -1.28150000      -0.72390000       2.44710000
C       -2.16250000      -0.23560000       1.29230000
C       -1.45500000      -0.47920000      -0.02940000
C       -2.19480000      -0.54850000      -1.30570000
N       -1.72120000      -1.79040000      -0.65420000
H       -0.05200000       1.69400000       0.96470000
H        0.48580000      -0.25980000      -0.94960000
H        0.75580000      -1.65120000       1.11870000
H        1.71950000      -0.15330000       1.26360000
H       -1.20990000      -1.82270000       2.42230000
H       -1.68920000      -0.42750000       3.41710000
H       -3.12460000      -0.75610000       1.30440000
H       -2.35680000       0.83730000       1.40880000
H       -3.27450000      -0.42440000      -1.31530000
H       -1.69160000      -0.20600000      -2.20640000
H       -0.88850000      -2.12790000      -1.13420000
