14
Properties=species:S:1:pos:R:3 gdb_21308=T pbc="F F F"
C        0.30600000       1.41600000      -0.03290000
O        0.53270000       0.02290000      -0.06020000
C        0.15870000      -0.61110000       1.13460000
C        0.44030000      -2.06750000       0.99000000
C        0.95440000      -2.80810000      -0.02870000
N        0.98280000      -4.11060000       0.41160000
N        0.54010000      -4.20890000       1.57760000
O        0.16380000      -2.87050000       2.00970000
H        0.88450000       1.90500000       0.76550000
H        0.62610000       1.81230000      -0.99830000
H       -0.75900000       1.65030000       0.11590000
H        0.71690000      -0.21070000       1.99850000
H       -0.91240000      -0.46190000       1.35500000
H        1.29230000      -2.51370000      -1.00530000
