15
Properties=species:S:1:pos:R:3 gdb_13922=T pbc="F F F"
O       -0.08280000       0.02470000      -0.16040000
C       -0.08070000       1.20700000       0.00120000
C       -1.13450000       2.28370000       0.31010000
N       -0.00970000       3.24450000       0.47930000
C        1.00100000       2.29540000      -0.01880000
C        2.37840000       2.12660000       0.65150000
O        3.06300000       2.24890000      -0.61270000
C        1.83710000       2.52030000      -1.30700000
H       -1.80500000       2.46910000      -0.53980000
H       -1.73950000       2.12890000       1.20960000
H       -0.09190000       4.09840000      -0.06050000
H        2.62340000       2.93910000       1.34660000
H        2.56120000       1.15630000       1.12730000
H        1.65840000       1.81900000      -2.13090000
H        1.78690000       3.55160000      -1.68630000
