14
Properties=species:S:1:pos:R:3 gdb_35439=T pbc="F F F"
C       -0.00290000      -1.21930000      -0.02210000
C        0.01300000      -0.01620000      -0.01790000
C        0.01230000       1.40070000       0.00710000
C        0.29160000       2.30500000      -1.19060000
C        1.13080000       2.44660000       0.02740000
O        0.47310000       3.24340000       1.01560000
C       -0.58980000       2.26740000       1.13240000
C       -1.92400000       2.83310000       0.92340000
N       -2.97970000       3.26820000       0.74810000
H       -0.01580000      -2.28120000      -0.02990000
H        0.75160000       1.77980000      -2.02050000
H       -0.41370000       3.08670000      -1.45720000
H        2.20630000       2.34340000       0.09410000
H       -0.54330000       1.76740000       2.10480000
