23
Properties=species:S:1:pos:R:3 gdb_58779=T pbc="F F F"
C        0.07290000       1.46090000      -0.19260000
C        0.01190000      -0.03260000       0.14200000
O        0.70220000      -0.31310000       1.36180000
C       -1.40020000      -0.55860000       0.16460000
C       -2.11930000      -1.01220000      -1.08100000
C       -1.92150000      -1.99880000       0.04110000
C       -1.18270000      -3.29590000      -0.12310000
C       -2.96850000      -1.72250000       1.12980000
C       -2.43850000      -0.25730000       1.25750000
H        1.10970000       1.80880000      -0.18960000
H       -0.36510000       1.66220000      -1.17490000
H       -0.48770000       2.04700000       0.54660000
H        0.57340000      -0.58860000      -0.61950000
H        0.33530000       0.26280000       2.04100000
H       -3.10760000      -0.62410000      -1.32290000
H       -1.48390000      -1.17040000      -1.94840000
H       -0.35400000      -3.19800000      -0.83210000
H       -0.76570000      -3.63910000       0.83020000
H       -1.84570000      -4.08430000      -0.50120000
H       -4.01610000      -1.84440000       0.83350000
H       -2.79560000      -2.30280000       2.03990000
H       -1.99030000      -0.07560000       2.23850000
H       -3.14850000       0.54930000       1.04540000
