16
Properties=species:S:1:pos:R:3 gdb_433=T pbc="F F F"
C       -0.12010000       1.52560000       0.03500000
C       -0.00260000       0.00360000       0.02070000
C        1.15390000      -0.53690000      -0.87550000
C        2.04400000      -0.66600000       0.39200000
C        0.74780000      -0.59350000       1.24300000
O        0.72190000       0.21280000       2.39840000
H        0.85080000       2.00610000       0.19060000
H       -0.52400000       1.88320000      -0.91820000
H       -0.78220000       1.86100000       0.83800000
H       -0.98670000      -0.43650000      -0.16640000
H        0.92050000      -1.50760000      -1.32090000
H        1.50950000       0.12950000      -1.66520000
H        2.67470000      -1.55330000       0.49170000
H        2.65670000       0.22510000       0.55330000
H        0.37480000      -1.60520000       1.46200000
H        1.24150000      -0.22110000       3.08220000
