19
Properties=species:S:1:pos:R:3 gdb_58666=T pbc="F F F"
C        0.43970000      -2.42170000      -1.58310000
C        0.14490000      -1.69490000      -0.27060000
O        0.82660000      -0.45310000      -0.18030000
C       -1.35810000      -1.49640000      -0.03990000
C       -2.16380000      -2.54210000       0.67850000
N       -1.92740000      -1.25280000       1.29010000
C       -1.04450000      -1.15530000       2.44730000
C       -1.98490000      -0.70850000      -1.08770000
N       -2.42580000      -0.08020000      -1.95300000
H        1.52070000      -2.52010000      -1.71000000
H       -0.00770000      -3.42040000      -1.59130000
H        0.03960000      -1.86590000      -2.43780000
H        0.53460000      -2.28900000       0.56030000
H        0.55350000       0.09410000      -0.92700000
H       -3.18330000      -2.75690000       0.37120000
H       -1.60040000      -3.40190000       1.04410000
H       -0.31660000      -1.97500000       2.53400000
H       -0.49910000      -0.21030000       2.40090000
H       -1.66740000      -1.16100000       3.34620000
