17
Properties=species:S:1:pos:R:3 gdb_46144=T pbc="F F F"
O        0.01910000      -0.08820000      -0.07840000
C       -0.01520000       1.12470000      -0.01840000
C       -1.33090000       1.89740000       0.01030000
C       -1.22440000       3.37760000      -0.36930000
C       -0.03340000       4.01530000       0.37420000
C        1.26840000       3.30890000      -0.04640000
N        1.13100000       1.87010000       0.10500000
C        0.06710000       5.45220000       0.12120000
N        0.14710000       6.58570000      -0.08810000
H       -2.02950000       1.36610000      -0.63960000
H       -1.72340000       1.79780000       1.03050000
H       -1.06550000       3.49010000      -1.44800000
H       -2.15080000       3.90530000      -0.12760000
H       -0.17430000       3.87400000       1.45360000
H        1.50070000       3.58610000      -1.08500000
H        2.09960000       3.65570000       0.57500000
H        1.97430000       1.31510000       0.06140000
