27
Properties=species:S:1:pos:R:3 gdb_104877=T pbc="F F F"
C       -1.34100000      -0.22780000       0.13830000
C        0.17830000      -0.08740000      -0.01370000
C        0.78820000      -0.59880000      -1.34500000
C        0.15390000       0.08460000      -2.57380000
C        0.26320000       1.61330000      -2.62270000
C        2.32890000      -0.41520000      -1.30320000
C        2.88860000      -1.61610000      -0.50050000
C        1.78340000      -2.71050000      -0.54510000
C        0.67880000      -2.14070000      -1.45820000
H       -1.88420000       0.35620000      -0.61110000
H       -1.67010000      -1.26810000       0.04770000
H       -1.65980000       0.12860000       1.12320000
H        0.44860000       0.96860000       0.10900000
H        0.66420000      -0.61000000       0.81890000
H        0.63220000      -0.33080000      -3.47060000
H       -0.90290000      -0.20170000      -2.64420000
H       -0.27420000       2.09140000      -1.79770000
H        1.30580000       1.94400000      -2.57430000
H       -0.16180000       1.99940000      -3.55470000
H        2.71690000      -0.44000000      -2.32890000
H        2.62850000       0.54670000      -0.87590000
H        3.83070000      -1.97010000      -0.92840000
H        3.10980000      -1.33070000       0.53210000
H        2.16110000      -3.66710000      -0.91660000
H        1.39340000      -2.90310000       0.45920000
H       -0.31600000      -2.52200000      -1.20950000
H        0.87260000      -2.42840000      -2.49910000
