19
Properties=species:S:1:pos:R:3 gdb_29785=T pbc="F F F"
C       -0.03640000       1.46760000       0.00280000
N        0.00530000       0.02210000      -0.00840000
C       -0.01730000      -0.75890000      -1.14600000
C        0.03140000      -2.07280000      -0.74660000
O        0.03120000      -3.13990000      -1.60330000
C        0.07720000      -2.11300000       0.67490000
C        0.13310000      -3.33870000       1.53290000
C        0.05830000      -0.79220000       1.09920000
N        0.10040000      -0.21700000       2.39180000
H        0.10430000       1.80220000       1.03050000
H        0.76050000       1.88020000      -0.62480000
H       -0.99820000       1.84170000      -0.36740000
H       -0.06590000      -0.32380000      -2.12980000
H        0.07070000      -3.94530000      -1.07970000
H        1.05390000      -3.91960000       1.38400000
H        0.09340000      -3.07040000       2.59320000
H       -0.70940000      -4.01880000       1.34620000
H        0.86950000      -0.58130000       2.94270000
H       -0.75440000      -0.37530000       2.91580000
