13
Properties=species:S:1:pos:R:3 gdb_27453=T pbc="F F F"
N        0.07860000       1.29870000       0.27930000
C       -0.07400000      -0.02960000       0.00050000
N       -1.21340000      -0.60560000       0.16710000
C       -1.37240000      -1.93310000      -0.25090000
O       -2.19130000      -2.28350000      -1.05650000
N       -0.58110000      -2.86410000       0.46950000
C        0.68750000      -2.79590000       0.37070000
N        1.46240000      -1.92140000      -0.40010000
C        1.12630000      -0.69880000      -0.57040000
H        0.99770000       1.67470000       0.43990000
H       -0.68690000       1.74870000       0.75760000
H        1.29210000      -3.53390000       0.89750000
H        1.79930000      -0.07140000      -1.16170000
