19
Properties=species:S:1:pos:R:3 gdb_14105=T pbc="F F F"
C       -0.25900000       1.29120000      -0.00140000
N        0.03610000      -0.12850000       0.13370000
C        1.41450000      -0.54990000      -0.15130000
C        0.89050000      -0.57660000       1.23150000
C        1.21360000       0.21790000       2.50170000
C        0.28160000      -0.76060000       3.27930000
C        0.34570000      -1.74700000       2.06730000
O       -0.82380000      -2.34130000       1.59110000
H        0.59030000       1.94490000       0.24970000
H       -0.55110000       1.49490000      -1.03610000
H       -1.10030000       1.55470000       0.64790000
H        1.52250000      -1.47030000      -0.72030000
H        2.13030000       0.23160000      -0.40580000
H        2.26450000       0.12560000       2.79010000
H        0.94580000       1.27680000       2.51280000
H        0.63040000      -1.12890000       4.24610000
H       -0.73030000      -0.36170000       3.38860000
H        1.09980000      -2.52660000       2.23390000
H       -1.13570000      -1.74470000       0.89100000
