14
Properties=species:S:1:pos:R:3 gdb_28386=T pbc="F F F"
N        0.09030000       1.35010000       0.18660000
C       -0.07540000      -0.01190000       0.06680000
C       -1.24630000      -0.70180000       0.03130000
C       -1.20100000      -2.12460000      -0.00950000
C       -0.00640000      -2.77330000      -0.01860000
O        0.12450000      -4.12200000      -0.05850000
C        1.23140000      -2.02980000       0.00760000
O        2.33610000      -2.52840000      -0.00950000
O        1.11660000      -0.64850000       0.04910000
H        0.97710000       1.69270000      -0.15450000
H       -0.69690000       1.90700000      -0.10820000
H       -2.18860000      -0.17170000       0.04450000
H       -2.12110000      -2.69770000      -0.03650000
H        1.08110000      -4.28690000      -0.06170000
