14
Properties=species:S:1:pos:R:3 gdb_125466=T pbc="F F F"
C       -0.02000000       1.47260000       0.02830000
C       -0.00330000      -0.01640000      -0.03540000
N       -0.05190000      -0.74100000      -1.12550000
C       -0.00870000      -2.04120000      -0.67000000
C        0.06640000      -2.08400000       0.70850000
N        0.10220000      -3.38740000       1.02630000
N        0.04880000      -4.12940000      -0.15160000
N       -0.01710000      -3.31180000      -1.15690000
N        0.07140000      -0.78930000       1.14050000
H        0.89110000       1.86960000       0.49070000
H       -0.09070000       1.86080000      -0.98800000
H       -0.87490000       1.84500000       0.60460000
H        0.15620000      -3.87460000       1.90370000
H        0.11690000      -0.43510000       2.08010000
