18
Properties=species:S:1:pos:R:3 gdb_38476=T pbc="F F F"
C       -0.01750000       1.61270000       0.23120000
C        1.45960000       1.22890000       0.10840000
O        1.16500000      -0.00920000       0.91130000
C        0.09250000       0.10070000      -0.12100000
C       -0.95620000      -0.82310000      -0.71100000
C       -0.86070000      -0.40770000      -2.19910000
N       -0.96850000       1.04520000      -2.43560000
C        0.37350000       0.42900000      -2.46750000
C        1.16250000       0.36830000      -1.17400000
H       -0.34470000       1.81090000       1.25300000
H       -0.45470000       2.27410000      -0.51200000
H        2.36210000       1.76990000       0.39510000
H       -0.67110000      -1.87540000      -0.60490000
H       -1.95990000      -0.68450000      -0.30050000
H       -1.25830000      -1.08200000      -2.95100000
H       -1.27320000       1.20970000      -3.39120000
H        0.88400000       0.36050000      -3.42300000
H        1.88170000      -0.45330000      -1.24810000
