20
Properties=species:S:1:pos:R:3 gdb_85318=T pbc="F F F"
C        0.06050000       1.55610000      -0.12130000
C        0.00630000       0.04900000       0.05480000
O        0.56710000      -0.58710000      -1.11970000
C        1.18490000      -1.76640000      -0.80200000
N        1.63370000      -2.58790000      -1.65020000
C        1.28210000      -1.92660000       0.70170000
C        2.69410000      -1.62110000       1.27250000
C        2.26750000      -0.13650000       1.45270000
C        0.78100000      -0.55500000       1.22660000
H        1.09090000       1.91130000      -0.20490000
H       -0.47860000       1.85470000      -1.02430000
H       -0.40850000       2.04850000       0.73660000
H       -1.04470000      -0.26820000       0.12280000
H        1.44720000      -2.26020000      -2.59980000
H        0.79950000      -2.85040000       1.02410000
H        2.85540000      -2.12510000       2.22840000
H        3.53730000      -1.83360000       0.61330000
H        2.49730000       0.32980000       2.41260000
H        2.65160000       0.50710000       0.65760000
H        0.19070000      -0.57660000       2.14370000
