19
Properties=species:S:1:pos:R:3 gdb_97860=T pbc="F F F"
C        0.12590000       1.47250000       0.17480000
C       -0.22500000       0.00960000      -0.15400000
C        0.52220000      -0.51440000      -1.29220000
C        1.14520000      -0.93140000      -2.23550000
C        1.89990000      -1.43030000      -3.37950000
C        3.36210000      -0.88570000      -3.43680000
O        4.13150000      -2.02350000      -3.78130000
C        3.45760000      -3.09140000      -3.16590000
O        2.07840000      -2.85600000      -3.34770000
H        1.18740000       1.57300000       0.41690000
H       -0.08940000       2.12440000      -0.67610000
H       -0.45820000       1.82010000       1.03190000
H       -0.03200000      -0.62020000       0.72380000
H       -1.30080000      -0.07390000      -0.35440000
H        1.36360000      -1.19930000      -4.30730000
H        3.50420000      -0.12020000      -4.20140000
H        3.65500000      -0.48590000      -2.45650000
H        3.73290000      -4.02530000      -3.66300000
H        3.70440000      -3.14020000      -2.08950000
