25
Properties=species:S:1:pos:R:3 gdb_100296=T pbc="F F F"
C        0.07760000       1.43410000       0.43550000
C        0.02500000      -0.07390000       0.16590000
C        0.60900000      -0.53300000      -1.18730000
C        0.42250000      -2.04450000      -1.36360000
O       -0.00390000       0.19900000      -2.27690000
C       -1.36260000      -0.03870000      -2.57360000
C        2.09910000      -0.12800000      -1.37370000
C        3.08040000      -0.75210000      -0.39050000
O        2.53130000      -0.48130000      -2.68000000
H        1.10130000       1.79130000       0.58050000
H       -0.35340000       1.99560000      -0.39780000
H       -0.48540000       1.68010000       1.34100000
H        0.54270000      -0.61760000       0.96410000
H       -1.01670000      -0.41330000       0.21890000
H       -0.63450000      -2.32380000      -1.34300000
H        0.86310000      -2.37390000      -2.30690000
H        0.91250000      -2.58540000      -0.54970000
H       -1.54050000      -1.04900000      -2.96480000
H       -2.01830000       0.11930000      -1.70670000
H       -1.63940000       0.68340000      -3.34670000
H        2.13650000       0.96610000      -1.26300000
H        4.08860000      -0.39970000      -0.62400000
H        2.85210000      -0.47150000       0.64120000
H        3.08430000      -1.84280000      -0.46790000
H        1.83820000      -0.15400000      -3.26730000
