15
Properties=species:S:1:pos:R:3 gdb_10571=T pbc="F F F"
C       -0.08220000       1.52200000      -0.06520000
C       -0.00950000       0.02130000       0.04210000
N        1.28990000      -0.60420000      -0.17610000
C        0.69110000      -0.67290000       1.19440000
C        1.36350000       0.09440000       2.21500000
C        1.89840000       0.73290000       3.08080000
C        0.14770000      -1.93770000       1.62610000
C       -0.29660000      -3.00210000       1.96580000
H        0.80740000       1.98440000       0.36620000
H       -0.15130000       1.81890000      -1.11700000
H       -0.96550000       1.90370000       0.45660000
H       -0.88570000      -0.51590000      -0.31690000
H        1.18480000      -1.51680000      -0.61380000
H        2.38190000       1.29200000       3.84330000
H       -0.68930000      -3.93830000       2.27730000
