23
Properties=species:S:1:pos:R:3 gdb_41588=T pbc="F F F"
C       -0.14230000       1.20240000       0.67470000
C        1.11630000       1.70330000      -0.09700000
C        1.43950000       0.24130000      -0.53010000
C        0.07750000      -0.21700000       0.10280000
C       -0.45610000      -0.54020000      -1.33610000
C       -1.42140000       0.39430000      -2.08960000
C       -0.74070000       0.58740000      -3.46210000
C        0.76740000       0.69980000      -3.13610000
C        0.95990000      -0.24600000      -1.93370000
H        0.00060000       1.22780000       1.75860000
H       -1.09380000       1.69470000       0.45450000
H        0.90710000       2.39650000      -0.91600000
H        1.88150000       2.16240000       0.53350000
H        2.40400000      -0.14070000      -0.19130000
H        0.00670000      -1.04890000       0.80560000
H       -0.77950000      -1.58000000      -1.43370000
H       -2.43480000      -0.00950000      -2.17270000
H       -1.50810000       1.36510000      -1.58960000
H       -0.91640000      -0.29740000      -4.08670000
H       -1.12670000       1.45080000      -4.01330000
H        1.39660000       0.43300000      -3.99020000
H        1.01780000       1.73350000      -2.87430000
H        1.49770000      -1.15290000      -2.22310000
