19
Properties=species:S:1:pos:R:3 gdb_68839=T pbc="F F F"
O       -0.18830000       1.42720000       0.05000000
C       -0.08730000       0.05120000      -0.02490000
C       -0.27570000      -0.85420000       1.17510000
C       -1.20660000      -0.99770000       0.00290000
O       -2.56900000      -0.91350000       0.19810000
C       -0.52200000      -1.75300000      -1.11890000
C       -0.45890000      -3.23570000      -1.32910000
C       -1.22700000      -2.35590000      -2.29590000
C        0.61300000      -0.70210000      -1.16700000
H        0.50410000       1.75560000       0.63380000
H        0.44170000      -1.63040000       1.43580000
H       -0.74260000      -0.35010000       2.01640000
H       -2.95530000      -0.49870000      -0.58200000
H        0.47650000      -3.66670000      -1.67110000
H       -1.02930000      -3.87270000      -0.66050000
H       -2.31140000      -2.40860000      -2.26480000
H       -0.81390000      -2.19350000      -3.28630000
H        0.61110000      -0.12410000      -2.09530000
H        1.62700000      -1.06570000      -0.96500000
