18
Properties=species:S:1:pos:R:3 gdb_77173=T pbc="F F F"
N        0.02410000       1.24240000       0.39620000
C        0.03430000      -0.11450000      -0.09930000
C       -1.32080000      -0.85250000      -0.23390000
O       -1.00620000      -1.15090000      -1.64850000
C        0.15230000      -0.41880000      -1.60880000
O        0.87830000      -0.15010000      -2.51300000
C       -1.57300000      -2.08150000       0.57360000
C       -2.37090000      -1.96860000       1.85270000
C       -2.96390000      -2.66150000       0.65610000
H        0.97250000       1.59550000       0.47150000
H       -0.46200000       1.85810000      -0.24960000
H        0.75760000      -0.70080000       0.47540000
H       -2.17430000      -0.16690000      -0.19660000
H       -0.74900000      -2.78990000       0.57190000
H       -2.05500000      -2.56870000       2.69800000
H       -2.75870000      -0.99240000       2.12340000
H       -3.75440000      -2.15470000       0.11290000
H       -3.06020000      -3.74070000       0.67700000
