16
Properties=species:S:1:pos:R:3 gdb_33545=T pbc="F F F"
N        0.88380000      -1.33560000      -0.30590000
C        0.61570000      -0.21440000      -0.22500000
C        0.25430000       1.21060000      -0.12810000
C       -0.55460000       1.59770000       1.14080000
C        0.72020000       2.36320000       1.54260000
O        1.37800000       2.00850000       0.29950000
C       -0.27810000       1.68470000      -1.46820000
C       -1.68470000       1.52280000      -1.84410000
O       -1.16240000       2.79570000      -1.44390000
H       -1.40970000       2.23080000       0.90870000
H       -0.84600000       0.76820000       1.78280000
H        0.61940000       3.44750000       1.64480000
H        1.25630000       1.95980000       2.40790000
H        0.48420000       1.71760000      -2.24630000
H       -1.95050000       1.43380000      -2.89490000
H       -2.38180000       1.06540000      -1.14380000
