15
Properties=species:S:1:pos:R:3 gdb_30468=T pbc="F F F"
C       -0.03100000       1.38480000       0.06390000
N        0.00070000      -0.06370000       0.04410000
C        0.56600000      -0.61460000      -0.95280000
N        1.19050000      -0.06090000      -2.08400000
C        1.67230000      -1.04420000      -2.92010000
C        1.37380000      -2.24210000      -2.35440000
N        0.69990000      -1.97950000      -1.15700000
C        1.65350000      -3.54080000      -2.82080000
N        1.87560000      -4.61730000      -3.19000000
H        0.97540000       1.83880000       0.07060000
H       -0.57940000       1.81650000      -0.79150000
H       -0.53860000       1.72330000       0.97060000
H        1.26170000       0.92800000      -2.24020000
H        2.18490000      -0.83160000      -3.84200000
H        0.34870000      -2.66000000      -0.50730000
