23
Properties=species:S:1:pos:R:3 gdb_94564=T pbc="F F F"
C       -0.60620000       1.35710000      -0.08190000
C        0.10450000       0.01030000      -0.07960000
C        1.56960000      -0.06730000      -0.59330000
C        1.90180000      -1.05200000       0.55790000
C        0.58490000      -0.62660000       1.27280000
C        0.75200000       0.33480000       2.43270000
C        1.56100000      -0.12140000       3.66960000
C        2.38860000       1.15360000       3.42130000
O        1.69830000       1.41160000       2.18100000
H       -0.02180000       2.11390000       0.44990000
H       -0.75820000       1.70800000      -1.10900000
H       -1.59360000       1.29370000       0.39070000
H       -0.50980000      -0.72570000      -0.61110000
H        1.72280000      -0.41690000      -1.61770000
H        2.08630000       0.88590000      -0.45890000
H        1.87550000      -2.09820000       0.24180000
H        2.83620000      -0.87580000       1.09630000
H       -0.04180000      -1.45050000       1.63570000
H       -0.22700000       0.75660000       2.70450000
H        1.01660000      -0.17950000       4.61310000
H        2.11430000      -1.04970000       3.51310000
H        2.22570000       1.95750000       4.15140000
H        3.46650000       1.02510000       3.27060000
