13
Properties=species:S:1:pos:R:3 gdb_21930=T pbc="F F F"
O       -0.13530000       1.38750000      -0.09680000
C       -0.01640000      -0.01880000       0.04120000
C       -1.40040000      -0.58160000       0.04750000
N       -1.74170000      -1.86110000       0.08410000
C       -3.10180000      -1.79550000       0.07970000
O       -3.87220000      -2.89110000       0.11090000
N       -3.62830000      -0.58510000       0.04200000
N       -2.49940000       0.18350000       0.02390000
H        0.73940000       1.77820000      -0.02550000
H        0.55170000      -0.47050000      -0.78540000
H        0.49120000      -0.29900000       0.97640000
H       -3.27270000      -3.64630000       0.13260000
H       -2.55070000       1.18750000      -0.01480000
