18
Properties=species:S:1:pos:R:3 gdb_13797=T pbc="F F F"
C       -0.37370000       1.61600000      -0.55410000
C       -0.53900000       0.09980000      -0.49300000
N        0.58760000      -0.53930000      -1.18330000
C        1.77930000      -0.84770000      -0.42220000
C        0.91380000      -1.95220000      -0.94150000
C        0.15880000      -2.77950000       0.06550000
N       -0.19950000      -4.01640000      -0.38920000
O       -0.10670000      -2.40040000       1.19360000
H        0.52530000       1.93390000      -0.01560000
H       -0.28600000       1.95790000      -1.58950000
H       -1.23340000       2.11210000      -0.09340000
H       -0.63890000      -0.23840000       0.54490000
H       -1.45150000      -0.19700000      -1.02400000
H        2.73090000      -0.64130000      -0.90540000
H        1.74920000      -0.70680000       0.65680000
H        1.21850000      -2.48170000      -1.84290000
H       -0.08460000      -4.28990000      -1.34890000
H       -0.75010000      -4.60100000       0.21810000
