16
Properties=species:S:1:pos:R:3 gdb_37159=T pbc="F F F"
C        0.09980000       1.46540000       0.11760000
C        1.32260000       0.64260000      -0.06960000
N       -0.02870000      -0.00040000      -0.00790000
C       -0.22240000      -0.52970000      -1.42480000
C        0.40200000       0.47310000      -2.41420000
C        1.42150000      -0.47410000      -3.08450000
O        2.62190000       0.27460000      -2.56160000
C        1.64300000       0.27500000      -1.49610000
C        1.13560000      -1.18620000      -1.74860000
H       -0.14060000       1.84800000       1.10610000
H       -0.22370000       2.10290000      -0.69980000
H        2.01610000       0.42570000       0.73580000
H       -1.19200000      -1.00840000      -1.54340000
H        0.04370000       1.42160000      -2.80730000
H        1.50290000      -0.83740000      -4.10630000
H        1.59110000      -2.08960000      -1.34870000
