13
Properties=species:S:1:pos:R:3 gdb_5347=T pbc="F F F"
N        0.01780000      -1.16190000      -0.00290000
C        0.00210000      -0.00420000       0.00320000
C       -0.01730000       1.42630000       0.01070000
C       -1.24060000       2.11040000       0.03070000
C       -1.25340000       3.49970000       0.03790000
C       -0.05510000       4.21160000       0.02530000
C        1.16210000       3.53260000       0.00540000
C        1.18700000       2.14350000      -0.00190000
H       -2.16650000       1.54750000       0.04030000
H       -2.20060000       4.02740000       0.05330000
H       -0.06980000       5.29620000       0.03100000
H        2.09460000       4.08600000      -0.00430000
H        2.12780000       1.60610000      -0.01740000
