17
Properties=species:S:1:pos:R:3 gdb_26133=T pbc="F F F"
C        0.40110000       1.12930000      -0.56400000
C        0.03970000      -0.07400000       0.30340000
O        0.22570000       0.19390000       1.70190000
C       -1.35350000      -0.57240000       0.06230000
C       -2.26870000      -0.50050000      -0.96320000
O       -2.12810000       0.15540000      -2.14040000
N       -3.40420000      -1.20300000      -0.68270000
C       -3.20170000      -1.71700000       0.51700000
N       -1.98620000      -1.37830000       1.00130000
H        1.42640000       1.44120000      -0.34970000
H        0.31090000       0.88730000      -1.62560000
H       -0.27400000       1.96790000      -0.35990000
H        0.76330000      -0.87810000       0.10910000
H       -0.32120000       0.95950000       1.91600000
H       -2.94410000      -0.00270000      -2.63060000
H       -3.90350000      -2.32470000       1.06710000
H       -1.59670000      -1.58030000       1.90760000
