24
Properties=species:S:1:pos:R:3 gdb_58755=T pbc="F F F"
C        0.37400000       1.32810000       0.25400000
C        0.17610000      -0.19250000       0.16680000
C        0.81380000      -0.90850000       1.36640000
C       -1.29310000      -0.54950000       0.03390000
C       -2.46520000      -0.31460000       1.02490000
N       -3.18160000      -1.00970000      -0.14460000
C       -2.32600000      -0.07950000      -1.02160000
C       -1.95390000      -1.95260000      -0.14090000
C       -1.73150000      -2.85330000      -1.34190000
H        1.43750000       1.58220000       0.30720000
H       -0.04970000       1.83930000      -0.61640000
H       -0.10970000       1.73590000       1.14920000
H        0.67740000      -0.54660000      -0.74620000
H        0.35080000      -0.58660000       2.30630000
H        0.69980000      -1.99480000       1.29350000
H        1.88390000      -0.68740000       1.43110000
H       -2.48530000      -0.89320000       1.95330000
H       -2.80610000       0.71140000       1.18810000
H       -2.65450000       0.96300000      -0.98370000
H       -2.21880000      -0.40610000      -2.05680000
H       -1.95810000      -2.56630000       0.76800000
H       -1.61230000      -2.31780000      -2.28640000
H       -0.83150000      -3.45860000      -1.18820000
H       -2.57780000      -3.54000000      -1.44980000
