15
Properties=species:S:1:pos:R:3 gdb_132871=T pbc="F F F"
N        0.05070000       1.45060000       0.14800000
C        0.00480000       0.04250000       0.03430000
C       -1.14590000      -0.67920000      -0.00090000
N       -1.11750000      -2.05590000      -0.00600000
C        0.02290000      -2.84710000      -0.02110000
N       -0.08370000      -4.12830000      -0.04990000
C        1.23440000      -2.03950000       0.00320000
F        2.37520000      -2.73310000      -0.00210000
C        1.24160000      -0.69060000       0.03980000
H        0.70220000       1.86930000      -0.50640000
H       -0.85770000       1.87800000       0.01610000
H       -2.13040000      -0.22940000      -0.01080000
H       -1.98250000      -2.57520000      -0.02490000
H        0.84310000      -4.54720000      -0.05310000
H        2.18750000      -0.16080000       0.08240000
