19
Properties=species:S:1:pos:R:3 gdb_79330=T pbc="F F F"
O       -0.08280000       1.42530000      -0.05440000
C       -0.00030000       0.00480000      -0.02070000
C       -1.41120000      -0.53060000      -0.14040000
C       -1.67930000      -0.76830000      -1.60280000
C       -0.42740000      -0.37840000      -2.36680000
C        0.68380000      -0.58530000      -1.29380000
C        0.87330000      -2.06620000      -1.08420000
C       -0.23600000      -2.74000000      -0.76660000
C       -1.49460000      -1.96340000      -0.65860000
H        0.81320000       1.77100000       0.01210000
H        0.50740000      -0.33410000       0.89360000
H       -2.16600000      -0.16990000       0.54710000
H       -2.65750000      -0.60920000      -2.04000000
H       -0.24990000      -0.98240000      -3.26170000
H       -0.48180000       0.67560000      -2.65360000
H        1.61490000      -0.06640000      -1.53320000
H        1.84410000      -2.53420000      -1.20070000
H       -0.25420000      -3.81270000      -0.60480000
H       -2.39630000      -2.50420000      -0.39560000
