16
Properties=species:S:1:pos:R:3 gdb_4879=T pbc="F F F"
C       -0.00570000       1.55500000       0.19830000
C       -0.03100000       0.04210000      -0.08280000
C       -1.40340000      -0.53990000      -0.09910000
C       -2.11140000      -1.11180000      -1.08130000
O       -3.36200000      -1.49370000      -0.61590000
C       -3.44390000      -1.15070000       0.71900000
N       -4.41710000      -1.33740000       1.50940000
N       -2.23770000      -0.55610000       1.02370000
H        1.02250000       1.92780000       0.20090000
H       -0.56900000       2.10110000      -0.56370000
H       -0.44820000       1.79070000       1.17130000
H        0.43490000      -0.16350000      -1.05160000
H        0.57820000      -0.47770000       0.66920000
H       -1.89480000      -1.31610000      -2.11460000
H       -5.18460000      -1.79870000       1.02900000
H       -2.01710000      -0.24020000       1.95050000
