17
Properties=species:S:1:pos:R:3 gdb_107535=T pbc="F F F"
O        0.01340000       1.41460000       0.22580000
C        0.04320000       0.02300000      -0.03590000
C       -1.32940000      -0.56600000      -0.11750000
N       -2.09610000      -0.96950000       1.08800000
C       -1.86560000      -1.95030000       0.00070000
C       -2.96000000      -1.68320000      -1.03570000
C       -2.39350000      -0.21570000      -1.18400000
C       -3.28000000       0.90210000      -0.89890000
N       -3.98570000       1.79090000      -0.67970000
H       -0.54830000       1.56680000       0.99390000
H        0.56220000      -0.08430000      -0.99510000
H        0.63110000      -0.53130000       0.71600000
H       -1.41590000      -1.16840000       1.82270000
H       -1.34500000      -2.88010000       0.19280000
H       -2.85000000      -2.25130000      -1.96040000
H       -3.98130000      -1.76310000      -0.66120000
H       -1.93510000      -0.07150000      -2.16540000
