20
Properties=species:S:1:pos:R:3 gdb_82976=T pbc="F F F"
C       -0.29450000       1.49850000       0.04550000
C       -0.04870000       0.00340000      -0.02170000
C        0.50430000      -0.59460000      -1.33120000
O        1.51730000       0.24270000      -1.92670000
C        2.58220000      -0.38940000      -1.15500000
C        3.15040000       0.51430000      -0.05880000
C        2.21020000       0.27500000       1.16530000
N        1.11160000      -0.60650000       0.74230000
C        1.55960000      -1.32760000      -0.48050000
H        0.53660000       2.06350000      -0.38300000
H       -1.19610000       1.74560000      -0.52530000
H       -0.45850000       1.82630000       1.07730000
H       -0.95720000      -0.53030000       0.28720000
H       -0.17170000      -1.02300000      -2.07400000
H        3.33520000      -0.81700000      -1.82430000
H        4.18530000       0.24130000       0.17180000
H        3.15110000       1.55310000      -0.40020000
H        2.76510000      -0.22380000       1.96860000
H        1.81240000       1.20120000       1.58650000
H        1.73180000      -2.40060000      -0.39680000
