16
Properties=species:S:1:pos:R:3 gdb_129573=T pbc="F F F"
N       -0.08590000       1.38310000       0.16660000
C       -0.04520000      -0.07540000      -0.00110000
C       -1.50150000      -0.59010000       0.05940000
O       -2.11110000      -0.17040000       1.25170000
C        0.65040000      -0.53980000      -1.24490000
N        1.58240000      -1.43860000      -1.37360000
C        1.79720000      -1.42970000      -2.73050000
N        1.06490000      -0.59080000      -3.40880000
O        0.28380000       0.01220000      -2.41240000
H        0.83390000       1.74850000       0.38940000
H       -0.38180000       1.82800000      -0.69820000
H        0.49760000      -0.50230000       0.84570000
H       -2.04030000      -0.23020000      -0.83410000
H       -1.51310000      -1.68410000       0.03810000
H       -1.84380000       0.75440000       1.35900000
H        2.52130000      -2.06270000      -3.22260000
