19
Properties=species:S:1:pos:R:3 gdb_85258=T pbc="F F F"
C        0.62480000       1.44880000      -0.18580000
C       -0.08550000       0.11140000       0.04910000
C        0.11300000      -0.90700000      -1.10830000
C        1.27320000      -1.77050000      -0.64180000
C        1.76330000      -2.99330000      -1.31080000
N        2.60000000      -1.78180000      -1.30060000
C        1.32240000      -1.64110000       0.86930000
O        1.97790000      -2.30290000       1.64180000
N        0.46160000      -0.62230000       1.18610000
H        1.68640000       1.29050000      -0.40160000
H        0.17220000       1.98300000      -1.02780000
H        0.55140000       2.09120000       0.69780000
H       -1.15340000       0.29690000       0.21060000
H       -0.79010000      -1.51520000      -1.22260000
H        0.30190000      -0.40690000      -2.06240000
H        2.14010000      -3.80170000      -0.69120000
H        1.28150000      -3.29340000      -2.23820000
H        2.51870000      -1.30860000      -2.19880000
H        0.42840000      -0.26770000       2.12940000
