21
Properties=species:S:1:pos:R:3 gdb_84348=T pbc="F F F"
C        0.96510000       1.47620000      -0.23280000
C        0.15640000       0.18600000      -0.00550000
C        0.39830000      -0.81490000      -1.11380000
C        1.15840000      -1.83600000      -0.72780000
C        1.55540000      -1.72280000       0.73820000
C        2.97090000      -1.38080000       0.88220000
C        4.13850000      -1.11030000       0.98930000
C        0.54610000      -0.63850000       1.26050000
C        0.99430000       0.15010000       2.48720000
H        2.03850000       1.26750000      -0.26540000
H        0.68490000       1.94000000      -1.18450000
H        0.78000000       2.20750000       0.56010000
H       -0.90450000       0.46240000       0.05350000
H        0.02790000      -0.66330000      -2.12250000
H        1.51690000      -2.64310000      -1.35570000
H        1.38760000      -2.66650000       1.27380000
H        5.16900000      -0.87270000       1.08330000
H       -0.35060000      -1.20810000       1.53170000
H        1.92020000       0.70050000       2.30330000
H        0.22320000       0.86670000       2.78990000
H        1.17390000      -0.51990000       3.33460000
