15
Properties=species:S:1:pos:R:3 gdb_48763=T pbc="F F F"
O       -0.22230000       0.05160000       0.19810000
C       -0.03870000       1.23010000       0.05010000
C        1.28390000       1.88640000      -0.04110000
C        1.47220000       3.33630000       0.35870000
C        1.58170000       2.96080000      -1.08930000
C        2.94210000       2.58920000      -1.63080000
C        3.40580000       1.40760000      -0.76790000
O        4.45830000       0.85030000      -0.78510000
O        2.40420000       1.05480000       0.10390000
H       -0.87920000       1.95770000      -0.03850000
H        0.58940000       3.88590000       0.66680000
H        2.37230000       3.55700000       0.92320000
H        0.80220000       3.27840000      -1.77110000
H        2.89680000       2.26260000      -2.67390000
H        3.68770000       3.38660000      -1.56990000
