13
Properties=species:S:1:pos:R:3 gdb_15485=T pbc="F F F"
O       -0.16440000       0.00660000       0.00120000
C       -0.02360000       1.20300000       0.00790000
C        1.26500000       1.91920000       0.00050000
C        1.38760000       3.25430000       0.00980000
C        2.83350000       3.65790000      -0.00150000
N        3.50050000       2.38070000      -0.01910000
C        2.64160000       1.29730000      -0.01800000
O        2.96030000       0.13330000      -0.02960000
H       -0.90250000       1.88950000       0.02130000
H        0.57990000       3.97640000       0.02350000
H        3.06640000       4.27460000      -0.88270000
H        3.08430000       4.25970000       0.88510000
H        4.49860000       2.25750000      -0.02790000
