22
Properties=species:S:1:pos:R:3 gdb_52711=T pbc="F F F"
C       -0.02010000       1.47490000       0.07800000
C       -0.01550000       0.01920000       0.02950000
C       -0.01010000      -1.18510000       0.00210000
C       -0.00910000      -2.64690000      -0.06390000
C       -1.44480000      -3.20310000      -0.13020000
C        0.86940000      -3.11510000      -1.24540000
N        1.03660000      -4.56420000      -1.24790000
C        0.21060000      -5.33210000      -2.17640000
C        1.66040000      -5.13090000      -2.43860000
H        0.99850000       1.87840000       0.06150000
H       -0.55800000       1.90220000      -0.77580000
H       -0.50490000       1.84170000       0.98970000
H        0.46190000      -3.04060000       0.84690000
H       -1.43350000      -4.29540000      -0.10820000
H       -2.03210000      -2.84590000       0.71970000
H       -1.94650000      -2.87460000      -1.04640000
H        0.44100000      -2.73800000      -2.19170000
H        1.86110000      -2.66310000      -1.13830000
H       -0.15830000      -6.28500000      -1.80730000
H       -0.48850000      -4.78650000      -2.80820000
H        1.92790000      -4.45080000      -3.24620000
H        2.37290000      -5.93220000      -2.26380000
