19
Properties=species:S:1:pos:R:3 gdb_64206=T pbc="F F F"
C       -0.17770000       1.53530000      -0.02850000
C       -0.01630000       0.02310000      -0.06960000
O       -1.22160000      -0.62770000      -0.40480000
C        1.25760000      -0.47410000      -0.80160000
O        1.86750000      -0.83430000       0.45670000
C        0.65060000      -0.61440000       1.17790000
C        0.73730000       0.02520000       2.57160000
O       -0.01280000      -1.05450000       3.15880000
C       -0.00000000      -1.79790000       1.91910000
H        0.74790000       2.02360000       0.28990000
H       -0.42730000       1.91960000      -1.02550000
H       -0.97860000       1.82070000       0.66030000
H       -1.66390000      -0.12220000      -1.09430000
H        1.07130000      -1.34790000      -1.43720000
H        1.85130000       0.26800000      -1.34750000
H        1.76900000       0.07660000       2.94450000
H        0.24930000       0.99690000       2.71380000
H       -1.00410000      -2.08370000       1.59400000
H        0.65330000      -2.67840000       1.96550000
