23
Properties=species:S:1:pos:R:3 gdb_76619=T pbc="F F F"
C       -0.83760000       1.28400000       0.26740000
C       -0.23630000      -0.10400000       0.19940000
C        1.11650000      -0.35810000      -0.43640000
O        1.91140000       0.68010000      -0.92270000
C        0.93640000      -0.60000000       1.04580000
C        1.68480000       0.17910000       2.12310000
C        0.89190000       0.19750000       3.43650000
C        3.07540000      -0.44340000       2.32280000
O        1.85190000       1.54070000       1.66160000
H       -0.07750000       2.06010000       0.34530000
H       -1.42750000       1.47530000      -0.63580000
H       -1.50940000       1.38740000       1.12710000
H       -0.97730000      -0.87780000       0.00780000
H        1.21320000      -1.22890000      -1.07930000
H        2.08910000       1.27530000      -0.17990000
H        0.86330000      -1.64630000       1.33470000
H        0.71750000      -0.81910000       3.80240000
H        1.44150000       0.74210000       4.21380000
H       -0.07500000       0.68450000       3.29040000
H        3.63740000      -0.41500000       1.38570000
H        3.63920000       0.10340000       3.08890000
H        2.99860000      -1.48440000       2.65080000
H        2.43810000       1.99180000       2.27820000
