25
Properties=species:S:1:pos:R:3 gdb_60273=T pbc="F F F"
C       -0.15540000       1.56210000       0.19290000
C       -0.00190000       0.06400000      -0.04970000
C        0.95570000      -0.58440000       0.95490000
O       -1.31280000      -0.48410000       0.01560000
C       -1.49340000      -1.79220000      -0.49570000
C       -1.65820000      -2.88340000       0.57760000
C       -2.32120000      -4.03430000      -0.19090000
C       -3.30060000      -3.33900000      -1.17720000
C       -2.81220000      -1.87100000      -1.29280000
H        0.80990000       2.06990000       0.10730000
H       -0.84680000       1.99630000      -0.53380000
H       -0.55470000       1.74510000       1.19580000
H        0.39760000      -0.09270000      -1.06650000
H        0.56380000      -0.48070000       1.97200000
H        1.09470000      -1.64900000       0.74720000
H        1.93930000      -0.10500000       0.91080000
H       -0.64650000      -2.05250000      -1.15010000
H       -0.71900000      -3.16760000       1.05970000
H       -2.32650000      -2.49420000       1.35560000
H       -1.55930000      -4.59150000      -0.74900000
H       -2.82030000      -4.75360000       0.46400000
H       -3.31540000      -3.84680000      -2.14550000
H       -4.32460000      -3.37260000      -0.79410000
H       -3.51780000      -1.18050000      -0.82030000
H       -2.68530000      -1.53930000      -2.32670000
