18
Properties=species:S:1:pos:R:3 gdb_49246=T pbc="F F F"
O       -0.02250000       0.12930000       0.44740000
C        0.07020000       1.33300000       0.34100000
C        1.32170000       2.03290000       0.04570000
C        1.45370000       3.35960000      -0.10010000
C        2.87720000       3.72790000      -0.44510000
N        3.62630000       2.46960000      -0.32790000
C        4.17220000       2.16360000       1.02560000
C        3.41400000       0.81400000       1.04320000
C        2.64480000       1.34300000      -0.19300000
H       -0.81750000       1.99240000       0.46740000
H        0.64740000       4.08160000      -0.01760000
H        2.93420000       4.14490000      -1.46240000
H        3.29280000       4.49280000       0.22470000
H        5.26520000       2.12140000       1.05850000
H        3.82740000       2.86190000       1.80110000
H        4.04310000      -0.04700000       0.81260000
H        2.81640000       0.59320000       1.92770000
H        2.59140000       0.66190000      -1.04980000
