14
Properties=species:S:1:pos:R:3 gdb_43232=T pbc="F F F"
O        0.12000000      -0.04030000      -0.07600000
C        0.03350000       1.16270000      -0.01000000
C       -1.20740000       1.97510000       0.08810000
C       -0.92220000       3.29440000       0.02130000
C       -1.82800000       4.37380000       0.05790000
C       -2.56760000       5.32540000       0.07180000
C        0.57230000       3.50320000      -0.05540000
N        1.24180000       3.00040000       1.16870000
C        1.18260000       2.15930000      -0.06310000
H       -2.18830000       1.53600000       0.20710000
H       -3.23250000       6.15370000       0.09300000
H        0.98010000       4.35300000      -0.58880000
H        2.17690000       3.40520000       1.22440000
H        2.09350000       1.90770000      -0.59190000
