21
Properties=species:S:1:pos:R:3 gdb_92531=T pbc="F F F"
C       -0.73380000       1.35000000       0.15930000
C       -0.02950000      -0.00060000       0.05030000
C        0.80210000      -0.23820000      -1.23350000
C        1.87980000       0.80340000      -1.58670000
O        2.90850000       0.02890000      -0.91600000
C        2.00560000      -1.11300000      -0.78000000
C        1.77870000      -1.49000000       0.67840000
C        0.94400000      -0.31520000       1.22370000
O        1.76580000       0.78810000       1.58110000
H       -0.01260000       2.16190000       0.27580000
H       -1.35090000       1.55120000      -0.72270000
H       -1.38880000       1.37260000       1.03630000
H       -0.79290000      -0.79120000       0.06830000
H        0.19440000      -0.58490000      -2.07030000
H        2.08800000       0.88420000      -2.66070000
H        1.78310000       1.80780000      -1.16360000
H        2.32220000      -1.93710000      -1.42730000
H        1.21080000      -2.42690000       0.72650000
H        2.71280000      -1.62910000       1.23050000
H        0.38660000      -0.58020000       2.12780000
H        2.49040000       0.80890000       0.94040000
