16
Properties=species:S:1:pos:R:3 gdb_4049=T pbc="F F F"
C       -0.02360000       1.48760000       0.07190000
C       -0.01330000       0.00150000      -0.06270000
C        0.02890000      -0.74480000      -1.19380000
C        0.03670000      -2.14310000      -0.81580000
C        0.09830000      -2.18780000       0.70600000
N       -0.11010000      -0.78040000       1.08320000
N       -0.01300000      -3.22280000      -1.50370000
O       -0.06990000      -2.92600000      -2.88610000
H        0.82980000       1.83590000       0.66770000
H        0.02700000       1.96720000      -0.90690000
H       -0.93200000       1.82520000       0.58340000
H       -0.00150000      -0.37660000      -2.20550000
H       -0.67020000      -2.83680000       1.13540000
H        1.07670000      -2.54910000       1.04820000
H        0.37180000      -0.45030000       1.90730000
H       -0.11400000      -3.80520000      -3.27420000
