17
Properties=species:S:1:pos:R:3 gdb_130070=T pbc="F F F"
N       -0.03440000       1.31750000       0.10200000
C       -0.00910000      -0.06040000       0.03100000
N       -1.11100000      -0.80140000      -0.00940000
N       -0.59780000      -2.07130000      -0.00760000
C       -1.48020000      -3.21650000       0.00220000
C       -2.24000000      -3.35390000       1.33070000
O       -3.09630000      -4.48050000       1.31370000
C        0.74300000      -2.01210000       0.03070000
N        1.16290000      -0.75910000       0.05210000
H        0.80710000       1.74530000      -0.25490000
H       -0.87690000       1.73080000      -0.26950000
H       -2.19300000      -3.11450000      -0.82400000
H       -0.87970000      -4.11240000      -0.17620000
H       -1.52530000      -3.51600000       2.14400000
H       -2.77580000      -2.41930000       1.53940000
H       -3.86300000      -4.26610000       0.77310000
H        1.36720000      -2.89370000       0.03500000
