22
Properties=species:S:1:pos:R:3 gdb_83883=T pbc="F F F"
C       -0.50260000       1.38480000      -0.08940000
N       -0.02420000       0.01900000       0.03010000
C        1.33230000      -0.39950000      -0.31700000
C        2.43770000       0.58170000      -0.70520000
C        3.27970000       1.05060000       0.49260000
C        2.38620000       1.55760000       1.62810000
C        1.46960000       0.44450000       2.16180000
O        0.40920000       0.96090000       2.96620000
C        0.83740000      -0.44260000       1.10330000
H        0.26630000       2.16920000      -0.07460000
H       -1.05030000       1.47820000      -1.03370000
H       -1.19230000       1.58350000       0.73410000
H        1.35220000      -1.33710000      -0.87070000
H        3.08520000       0.09800000      -1.44330000
H        2.00740000       1.45530000      -1.21110000
H        3.89030000       0.21350000       0.85690000
H        3.97950000       1.83360000       0.17980000
H        2.99830000       1.93580000       2.45730000
H        1.77480000       2.39800000       1.28390000
H        2.09700000      -0.23140000       2.76940000
H        0.80340000       1.47710000       3.67730000
H        0.51920000      -1.40030000       1.51480000
