20
Properties=species:S:1:pos:R:3 gdb_90365=T pbc="F F F"
C       -0.14500000       1.54620000       0.02640000
C        0.05560000       0.03830000      -0.00590000
C        1.15550000      -0.54640000      -0.94560000
C        1.80710000      -1.29200000       0.25940000
C        2.83340000      -0.39680000       0.97710000
O        4.00400000      -0.14950000       0.86190000
N        1.85350000       0.10510000       1.81370000
C        0.74140000      -0.65640000       1.22290000
C       -0.11500000      -1.41880000       2.20750000
H        0.79680000       2.06930000       0.22190000
H       -0.52800000       1.90770000      -0.93380000
H       -0.86370000       1.83960000       0.80030000
H       -0.90390000      -0.45340000      -0.19840000
H        0.76720000      -1.21540000      -1.71570000
H        1.80900000       0.18620000      -1.42640000
H        2.00500000      -2.35950000       0.18330000
H        1.85320000       0.95680000       2.35950000
H       -0.73550000      -0.73530000       2.80000000
H       -0.78830000      -2.10620000       1.68610000
H        0.50520000      -1.99600000       2.89970000
