16
Properties=species:S:1:pos:R:3 gdb_89214=T pbc="F F F"
O       -0.10920000       1.45050000      -0.01680000
C       -0.02990000       0.04600000       0.01020000
C        0.26220000      -0.65310000       1.37840000
C       -1.12540000      -1.36370000       1.31980000
O       -1.23460000      -2.71100000       1.59190000
C       -1.43140000      -0.61190000      -0.04710000
N       -2.46040000       0.12870000       0.67580000
C       -2.22260000      -0.44550000       1.91570000
O       -2.66730000      -0.23410000       3.00870000
H        0.76840000       1.81250000       0.14090000
H        0.62690000      -0.33620000      -0.78350000
H        1.09410000      -1.36340000       1.32140000
H        0.41810000       0.00270000       2.23810000
H       -0.41400000      -3.15190000       1.34780000
H       -1.75990000      -1.09030000      -0.96950000
H       -2.74340000       1.08500000       0.50790000
