16
Properties=species:S:1:pos:R:3 gdb_10277=T pbc="F F F"
C       -0.53610000       1.32380000       0.11710000
C        0.14820000      -0.02080000       0.05740000
O        0.77730000      -0.46320000       0.99440000
C        0.05360000      -0.81510000      -1.26700000
C        0.52650000      -2.28150000      -1.08040000
O        1.88170000      -2.35750000      -0.71730000
C       -1.27470000      -0.75010000      -1.86240000
C       -2.37760000      -0.74930000      -2.34120000
H       -0.27450000       1.92850000      -0.75770000
H       -1.62120000       1.18410000       0.08540000
H       -0.25360000       1.84050000       1.03470000
H        0.77410000      -0.32850000      -1.94380000
H       -0.13190000      -2.76950000      -0.34690000
H        0.41230000      -2.80700000      -2.03220000
H        1.93710000      -1.94140000       0.15330000
H       -3.34730000      -0.73980000      -2.77450000
