21
Properties=species:S:1:pos:R:3 gdb_119563=T pbc="F F F"
C       -0.15540000       1.50540000      -0.18540000
C        0.04900000      -0.00280000      -0.21280000
C        1.36050000      -0.56030000      -0.88320000
C        1.71520000      -1.20780000       0.45790000
O        1.78480000      -0.15460000       1.43100000
C        0.49160000      -0.69830000       1.10170000
C       -0.34670000      -1.22610000       2.22490000
C       -0.92820000      -0.11840000       3.11550000
O       -1.73290000      -0.63540000       4.16240000
H        0.69520000       1.99280000       0.29920000
H       -0.24560000       1.90580000      -1.20090000
H       -1.06550000       1.77970000       0.35920000
H       -0.82830000      -0.50880000      -0.62970000
H        1.15740000      -1.28090000      -1.67910000
H        2.07840000       0.18400000      -1.23760000
H        2.29810000      -2.10030000       0.65920000
H       -1.17130000      -1.82730000       1.82430000
H        0.27410000      -1.89060000       2.83990000
H       -0.11160000       0.50950000       3.50080000
H       -1.58810000       0.52960000       2.52950000
H       -1.15900000      -1.12650000       4.75900000
