17
Properties=species:S:1:pos:R:3 gdb_86924=T pbc="F F F"
C       -0.34410000       1.37500000       0.15090000
N        0.01130000      -0.01930000       0.09910000
C       -0.78550000      -1.24940000       0.20150000
C        0.54370000      -2.03630000      -0.01050000
N        0.67000000      -2.87170000      -1.17660000
C        0.05600000      -4.08270000      -1.25190000
O       -0.71250000      -4.50600000      -0.41460000
C        1.19480000      -0.64090000      -0.18320000
O        2.28830000      -0.23780000      -0.49060000
H        0.56410000       1.95740000      -0.02100000
H       -1.07970000       1.62960000      -0.62170000
H       -0.76000000       1.64460000       1.12880000
H       -1.27080000      -1.39650000       1.17070000
H       -1.51300000      -1.37580000      -0.60600000
H        0.86050000      -2.56510000       0.89330000
H        1.36710000      -2.61990000      -1.86130000
H        0.32530000      -4.63590000      -2.17270000
