17
Properties=species:S:1:pos:R:3 gdb_87083=T pbc="F F F"
C       -0.24100000       1.42010000      -0.05380000
N        0.04330000      -0.00470000       0.04600000
C        1.39320000      -0.46770000      -0.19130000
C        0.81030000      -0.52030000       1.19880000
C        1.36630000       0.38780000       2.28720000
C        0.32070000      -1.78460000       1.68770000
C       -0.06980000      -2.84110000       2.12770000
C       -0.51380000      -4.03570000       2.61480000
N       -0.88980000      -5.05290000       3.03250000
H        0.60410000       2.07790000       0.19660000
H       -0.53800000       1.63180000      -1.08540000
H       -1.08320000       1.66790000       0.59850000
H        1.49680000      -1.37530000      -0.77910000
H        2.17870000       0.27360000      -0.34110000
H        1.81000000       1.29250000       1.86880000
H        0.58100000       0.67690000       2.99210000
H        2.14300000      -0.13930000       2.84820000
