14
Properties=species:S:1:pos:R:3 gdb_133339=T pbc="F F F"
N        0.10920000       1.36320000       0.15830000
C       -0.03170000      -0.01710000       0.04670000
C       -1.21050000      -0.69540000       0.02300000
C       -1.23050000      -2.13870000      -0.00540000
N       -2.31010000      -2.84010000      -0.02410000
C        0.13510000      -2.69490000      -0.02700000
F        0.22490000      -4.01990000      -0.05700000
N        1.24180000      -2.05730000      -0.01030000
N        1.15570000      -0.70310000      -0.00330000
H        0.78660000       1.76370000      -0.47920000
H       -0.77200000       1.85290000       0.09130000
H       -2.15370000      -0.16430000       0.00980000
H       -2.07560000      -3.83280000      -0.05670000
H        2.02000000      -0.24160000       0.22810000
