18
Properties=species:S:1:pos:R:3 gdb_86831=T pbc="F F F"
C       -0.04800000       1.59260000       0.01060000
C        0.09830000       0.07430000      -0.02140000
C        0.85390000      -0.51480000      -1.22260000
C        1.49250000      -1.82320000      -0.66980000
N        1.68860000      -1.47510000       0.73390000
C        0.86880000      -0.47050000       1.19030000
O        0.77860000      -0.09850000       2.33850000
C        0.64390000      -3.00600000      -0.85180000
C       -0.04540000      -3.97980000      -0.99810000
H        0.92410000       2.08330000      -0.10770000
H       -0.70650000       1.94580000      -0.78840000
H       -0.46430000       1.90280000       0.97250000
H       -0.89830000      -0.38420000       0.04040000
H        0.22490000      -0.71010000      -2.09170000
H        1.65920000       0.16260000      -1.52470000
H        2.45920000      -2.00960000      -1.15120000
H        2.11560000      -2.11240000       1.38880000
H       -0.65530000      -4.84030000      -1.12440000
