15
Properties=species:S:1:pos:R:3 gdb_34506=T pbc="F F F"
N        0.08890000      -1.13420000      -0.16010000
C        0.01280000       0.01820000      -0.05980000
C       -0.03570000       1.42550000       0.08830000
C       -1.12980000       2.21310000       0.03600000
C       -0.72090000       3.62780000       0.13070000
C        0.68190000       3.68620000       0.60630000
C        1.19630000       2.30940000       0.09680000
C        1.20300000       3.02700000      -1.30000000
N        0.40230000       4.16900000      -0.77800000
H       -2.14980000       1.87990000      -0.10000000
H       -1.43020000       4.41180000       0.36020000
H        1.07360000       4.31570000       1.39820000
H        2.11870000       1.86990000       0.46720000
H        2.19220000       3.41750000      -1.54680000
H        0.78200000       2.48820000      -2.15390000
