13
Properties=species:S:1:pos:R:3 gdb_42605=T pbc="F F F"
N       -0.07010000       1.20160000      -0.22740000
C       -0.06570000      -0.03340000      -0.04120000
C       -1.09650000      -1.07350000       0.16760000
C       -0.60880000      -2.35900000      -0.54270000
O        0.31330000      -2.25950000      -1.60750000
C        1.36660000      -1.49040000      -1.16530000
O        2.31330000      -1.21920000      -1.82610000
N        1.05910000      -1.01310000       0.17720000
C        0.03530000      -1.96480000       0.71250000
H        0.87800000       1.57650000      -0.29010000
H       -2.12220000      -0.95210000       0.48830000
H       -1.30040000      -3.18310000      -0.64830000
H        0.16790000      -2.47680000       1.65470000
