15
Properties=species:S:1:pos:R:3 gdb_50392=T pbc="F F F"
O        0.00230000       0.00670000      -0.00590000
C        0.04400000       1.21920000       0.00460000
N        1.19440000       1.93930000      -0.00110000
C        2.50450000       1.28780000      -0.02100000
C        3.44030000       2.45700000      -0.02040000
C        2.77540000       3.61780000      -0.00290000
C        1.27610000       3.39860000       0.01100000
C        3.34310000       4.91890000       0.00280000
N        3.77590000       5.99300000       0.00780000
H       -0.85820000       1.86230000       0.01990000
H        2.64180000       0.63410000       0.85120000
H        2.62310000       0.65000000      -0.90760000
H        4.51680000       2.35130000      -0.03270000
H        0.79420000       3.85240000      -0.86550000
H        0.81280000       3.83660000       0.90540000
