17
Properties=species:S:1:pos:R:3 gdb_5636=T pbc="F F F"
C        0.00920000       1.55560000       0.03950000
C       -0.02140000       0.02540000      -0.00270000
N       -1.36860000      -0.52070000       0.01860000
C       -2.06240000      -0.95700000       1.13690000
C       -3.31780000      -1.33680000       0.74160000
C       -3.41540000      -1.12320000      -0.66810000
C       -2.19860000      -0.61990000      -1.06280000
O       -1.70350000      -0.22220000      -2.26790000
H        1.04350000       1.91420000       0.04240000
H       -0.49680000       1.97260000      -0.83520000
H       -0.48930000       1.92990000       0.93850000
H        0.47900000      -0.33540000      -0.90600000
H        0.51180000      -0.39420000       0.85550000
H       -1.58310000      -0.96140000       2.10230000
H       -4.08970000      -1.73380000       1.38270000
H       -4.26390000      -1.31800000      -1.30590000
H       -2.36960000      -0.40190000      -2.93770000
