21
Properties=species:S:1:pos:R:3 gdb_32523=T pbc="F F F"
C        0.05660000       1.53270000      -0.03470000
C       -0.00780000      -0.00190000       0.06800000
C       -1.40880000      -0.54390000       0.03760000
C       -2.14800000      -0.93490000       1.11020000
O       -3.39350000      -1.32920000       0.73490000
C       -3.44880000      -1.18700000      -0.61590000
C       -2.27390000      -0.71430000      -1.11190000
C       -1.94640000      -0.47660000      -2.55880000
C       -1.11440000      -1.60700000      -3.19120000
H        1.09370000       1.88280000      -0.01360000
H       -0.40080000       1.89100000      -0.96220000
H       -0.47930000       1.99870000       0.79780000
H        0.58140000      -0.44140000      -0.74570000
H        0.47820000      -0.31850000       0.99790000
H       -1.93750000      -0.98830000       2.16640000
H       -4.38370000      -1.46040000      -1.07840000
H       -2.87910000      -0.36120000      -3.12260000
H       -1.40690000       0.47160000      -2.66970000
H       -1.65400000      -2.55780000      -3.14260000
H       -0.89530000      -1.39050000      -4.24170000
H       -0.16180000      -1.74230000      -2.66960000
