19
Properties=species:S:1:pos:R:3 gdb_102540=T pbc="F F F"
O        0.06840000       1.49790000       0.27010000
C        0.07000000       0.11300000      -0.00250000
C       -1.35120000      -0.48810000      -0.02830000
C       -2.11590000      -0.08710000      -1.29220000
O       -2.16780000       1.33950000      -1.36660000
C       -1.33390000      -2.02670000       0.07810000
O       -0.60320000      -2.61260000      -0.96760000
C       -0.78940000      -2.48300000       1.41750000
O        0.11830000      -3.27480000       1.49600000
H       -0.56260000       1.88930000      -0.34850000
H        0.57510000      -0.12200000      -0.95210000
H        0.66280000      -0.35570000       0.79250000
H       -1.89340000      -0.09230000       0.84180000
H       -1.60330000      -0.50750000      -2.16740000
H       -3.13420000      -0.50420000      -1.26330000
H       -2.43480000       1.59090000      -2.25530000
H       -2.38460000      -2.37890000       0.05510000
H        0.03650000      -3.20410000      -0.53940000
H       -1.28040000      -2.06160000       2.31800000
