14
Properties=species:S:1:pos:R:3 gdb_56395=T pbc="F F F"
N        0.12020000       1.03270000       0.01930000
H       -3.87710000      -1.10550000      -0.15590000
H        1.07780000       1.37110000       0.07160000
H       -0.27950000       1.45270000      -0.81640000
C       -0.61130000       1.54030000       1.19610000
C       -0.61990000       3.00760000       1.32540000
C       -0.58380000       4.20650000       1.39420000
C       -1.98100000       1.01280000       1.19950000
C       -3.10580000       0.58180000       1.21310000
C       -4.46070000       0.06360000       1.23460000
O       -5.32500000       0.45050000       1.96960000
O       -4.68940000      -0.92270000       0.33430000
H       -0.10750000       1.12310000       2.08010000
H       -0.56310000       5.26640000       1.46400000
