19
Properties=species:S:1:pos:R:3 gdb_56683=T pbc="F F F"
C       -0.05690000       1.65180000       0.15900000
C        0.03790000       0.13720000       0.04790000
C        1.13340000      -0.45700000      -0.87090000
O        1.62460000      -1.29890000       0.19160000
C        0.80860000      -0.61000000       1.16290000
C       -1.33350000      -0.53180000      -0.20210000
O       -2.22730000      -0.32040000       0.88790000
C       -1.92300000      -0.11880000      -1.47900000
C       -2.41430000       0.25600000      -2.51070000
H        0.93010000       2.09100000       0.33090000
H       -0.47130000       2.09180000      -0.75380000
H       -0.69600000       1.94170000       1.00020000
H        0.79510000      -1.03510000      -1.73880000
H        1.88550000       0.27330000      -1.19950000
H        1.40810000       0.04590000       1.80870000
H        0.22790000      -1.29680000       1.78780000
H       -1.16870000      -1.61620000      -0.22660000
H       -2.63600000       0.54360000       0.77060000
H       -2.85320000       0.56780000      -3.42660000
