22
Properties=species:S:1:pos:R:3 gdb_85931=T pbc="F F F"
C       -0.10000000       1.32590000       0.49090000
N       -0.02740000      -0.05220000       0.06930000
C       -1.09750000      -0.70890000      -0.65550000
C       -0.68800000      -2.20940000      -0.66610000
C       -1.26800000      -2.90880000       0.57540000
C       -1.15800000      -2.91630000      -1.94040000
C        0.85070000      -2.12310000      -0.54900000
C        1.13050000      -0.78490000       0.13370000
O        2.17590000      -0.41350000       0.62690000
H        0.84390000       1.57050000       0.98130000
H       -0.24610000       2.00100000      -0.36320000
H       -0.92740000       1.47970000       1.19400000
H       -2.06150000      -0.55080000      -0.15590000
H       -1.18920000      -0.30710000      -1.67720000
H       -2.36280000      -2.92490000       0.54220000
H       -0.91860000      -3.94480000       0.63590000
H       -0.96470000      -2.39840000       1.49530000
H       -0.74230000      -2.44240000      -2.83590000
H       -0.84840000      -3.96670000      -1.94190000
H       -2.25060000      -2.89420000      -2.02520000
H        1.29890000      -2.94320000       0.01650000
H        1.33330000      -2.10390000      -1.53360000
