16
Properties=species:S:1:pos:R:3 gdb_131440=T pbc="F F F"
O        0.19170000       1.36220000       0.06710000
C        0.14900000       0.02050000       0.07270000
N        0.27250000      -0.67070000      -1.04360000
O        0.17620000      -2.02940000      -0.66100000
C        0.00980000      -2.05270000       0.66170000
C       -0.01760000      -0.81590000       1.20640000
C       -0.25420000      -0.86670000       2.68590000
C       -0.07480000      -2.40090000       2.98010000
C       -0.19690000      -3.17500000       1.62170000
H        0.31920000       1.64510000      -0.84880000
H        0.44670000      -0.26350000       3.27060000
H       -1.26170000      -0.52150000       2.94820000
H        0.92420000      -2.56860000       3.39150000
H       -0.79180000      -2.76300000       3.72000000
H       -1.18600000      -3.63130000       1.49070000
H        0.54070000      -3.97750000       1.52900000
