17
Properties=species:S:1:pos:R:3 gdb_24191=T pbc="F F F"
C       -0.04110000       1.57320000      -0.05640000
C        1.52480000       1.37610000       0.01090000
C        1.18530000       0.16690000       0.96910000
C       -0.04510000      -0.00360000      -0.00370000
C        0.70000000      -0.30060000      -1.30190000
C        1.72120000       0.60400000      -1.28290000
N        2.43050000       0.38700000      -2.42940000
C        1.78660000      -0.65000000      -3.07980000
N        0.72770000      -1.08790000      -2.41510000
H       -0.44520000       2.03460000       0.85090000
H       -0.44980000       2.04880000      -0.95070000
H        2.20290000       2.17740000       0.29880000
H        1.90580000      -0.65230000       1.01900000
H        0.89690000       0.49560000       1.97320000
H       -0.92940000      -0.57340000       0.27250000
H        3.25260000       0.86570000      -2.75660000
H        2.14190000      -1.02990000      -4.02520000
