18
Properties=species:S:1:pos:R:3 gdb_23614=T pbc="F F F"
O        0.06650000       1.45460000       0.12200000
N        0.17120000       0.06960000      -0.05240000
C       -0.96780000      -0.50410000      -0.19200000
C       -0.95460000      -1.99150000      -0.31540000
C        0.23900000      -2.78870000       0.03980000
N       -0.94240000      -2.82330000       0.92070000
C       -2.27670000       0.19860000      -0.15880000
C       -3.38630000      -0.20660000      -1.07560000
N       -3.47890000      -0.49780000       0.35230000
H        0.98780000       1.71620000       0.22100000
H       -1.62300000      -2.39410000      -1.07290000
H        0.43420000      -3.71340000      -0.49480000
H        1.11700000      -2.24480000       0.36900000
H       -0.76830000      -2.21050000       1.71590000
H       -2.21730000       1.23880000       0.13370000
H       -4.06370000       0.56170000      -1.43760000
H       -3.21140000      -1.01910000      -1.77520000
H       -3.26470000      -1.47770000       0.52810000
