16
Properties=species:S:1:pos:R:3 gdb_128073=T pbc="F F F"
C       -0.01700000       1.40180000       0.10230000
N        0.10330000      -0.03300000      -0.03210000
C        0.56030000      -0.62810000      -1.16670000
O        0.91020000      -0.02610000      -2.17070000
C        0.60770000      -2.11490000      -1.10180000
N        0.23040000      -2.79330000      -0.01520000
N        0.41690000      -4.07880000      -0.34450000
C        0.90030000      -4.24220000      -1.60420000
C        1.03850000      -2.97940000      -2.13200000
H        0.60790000       1.78190000       0.91890000
H        0.31610000       1.84670000      -0.83630000
H       -1.05460000       1.70150000       0.29060000
H       -0.15550000      -0.63920000       0.73070000
H        0.19710000      -4.79330000       0.32940000
H        1.10030000      -5.22170000      -2.00850000
H        1.39280000      -2.69390000      -3.10730000
