18
Properties=species:S:1:pos:R:3 gdb_89811=T pbc="F F F"
O       -0.10770000       1.45980000       0.05460000
C       -0.00510000       0.05020000       0.02080000
C        0.69290000      -0.58320000       1.25310000
C        0.04940000      -1.96200000       1.38740000
C        0.81510000      -3.22200000       1.20040000
N        0.27860000      -2.85460000       2.52460000
C       -1.34290000      -1.80330000       0.84520000
O       -1.99500000      -0.61860000       1.32430000
C       -1.38530000      -0.58260000       0.03030000
H        0.77920000       1.82840000      -0.00370000
H        0.49910000      -0.28130000      -0.90260000
H        1.78090000      -0.62700000       1.15170000
H        0.44310000       0.03020000       2.12390000
H        0.34730000      -4.09180000       0.74570000
H        1.88460000      -3.14030000       1.02220000
H        1.01960000      -2.48350000       3.11480000
H       -1.98050000      -2.66710000       0.68030000
H       -2.06040000      -0.43730000      -0.80840000
