13
Properties=species:S:1:pos:R:3 gdb_18856=T pbc="F F F"
O       -0.00130000       0.01250000      -0.02340000
C       -0.04290000       1.19840000       0.04840000
C       -1.14230000       2.29090000       0.05240000
O       -1.49910000       2.62700000       1.38290000
C       -0.28200000       2.99250000       2.04260000
C        0.71230000       3.28160000       0.92510000
C        0.01260000       3.23170000      -0.35350000
N        1.06360000       2.14850000      -0.01300000
H       -2.03690000       2.16510000      -0.55390000
H       -0.46630000       3.88270000       2.65290000
H        0.06320000       2.18000000       2.69530000
H        1.55370000       3.94020000       1.10360000
H        0.12360000       3.86360000      -1.22250000
