19
Properties=species:S:1:pos:R:3 gdb_107289=T pbc="F F F"
C       -0.29650000       1.31870000      -0.03940000
O        0.17770000      -0.00980000       0.11310000
C        0.75450000      -0.51740000      -1.02890000
C       -0.06440000      -1.03090000      -2.17970000
C        0.84940000      -1.98440000      -1.43900000
C        2.31460000      -1.74580000      -1.86010000
O        2.55270000      -1.34050000      -3.23470000
C        2.61500000       0.05990000      -2.85520000
C        2.24370000      -0.27860000      -1.39860000
H        0.51990000       2.01590000      -0.27610000
H       -1.05380000       1.38490000      -0.83250000
H       -0.74390000       1.60900000       0.91360000
H       -1.11360000      -1.15690000      -1.93200000
H        0.13660000      -0.78090000      -3.21550000
H        0.47160000      -2.87300000      -0.94830000
H        3.05100000      -2.46670000      -1.49870000
H        3.63100000       0.45470000      -2.97810000
H        1.91440000       0.67940000      -3.42750000
H        2.85440000       0.10470000      -0.58290000
