23
Properties=species:S:1:pos:R:3 gdb_122450=T pbc="F F F"
C        0.21070000       1.39250000       0.08950000
O       -0.06450000       0.02290000      -0.06770000
C        0.67700000      -0.57050000      -1.11140000
C        0.29380000      -2.04380000      -1.20270000
C        1.05410000      -2.75760000      -2.29900000
C        2.43980000      -3.34240000      -2.05970000
C        1.25960000      -4.24380000      -2.34410000
C        0.71980000      -5.17540000      -1.28280000
O        1.16210000      -4.76380000      -3.64950000
H        1.27100000       1.57350000       0.33020000
H       -0.03420000       1.96720000      -0.81840000
H       -0.40490000       1.75960000       0.91460000
H        0.46920000      -0.06030000      -2.06860000
H        1.75990000      -0.46850000      -0.92360000
H        0.48420000      -2.50640000      -0.22850000
H       -0.78690000      -2.11190000      -1.37740000
H        0.91910000      -2.33140000      -3.29020000
H        3.18190000      -3.22720000      -2.84180000
H        2.83280000      -3.31600000      -1.04730000
H        0.78440000      -4.74020000      -0.28270000
H       -0.32640000      -5.42480000      -1.48680000
H        1.29260000      -6.11140000      -1.27010000
H        1.74930000      -5.52630000      -3.70470000
