24
Properties=species:S:1:pos:R:3 gdb_6052=T pbc="F F F"
C        0.17520000       1.54760000      -0.04070000
C       -0.04360000       0.03350000       0.05040000
C       -1.51110000      -0.47180000      -0.00320000
C       -2.26240000      -0.04460000       1.27130000
C       -2.23310000       0.08850000      -1.24270000
C       -1.44000000      -2.03070000      -0.06860000
C       -2.77470000      -2.76940000       0.06190000
O       -0.74910000      -2.47700000      -1.23750000
H        1.24090000       1.77850000       0.05680000
H       -0.15620000       1.95380000      -1.00130000
H       -0.34690000       2.09560000       0.75050000
H        0.50600000      -0.45800000      -0.75830000
H        0.40220000      -0.33120000       0.98600000
H       -2.19700000       1.03720000       1.42050000
H       -3.32560000      -0.29820000       1.22370000
H       -1.84040000      -0.52660000       2.16120000
H       -1.67620000      -0.12610000      -2.16090000
H       -3.24110000      -0.32670000      -1.34670000
H       -2.34350000       1.17430000      -1.17560000
H       -0.79480000      -2.35190000       0.75970000
H       -3.48030000      -2.47840000      -0.72520000
H       -2.59610000      -3.84440000      -0.03020000
H       -3.25540000      -2.58580000       1.02590000
H       -1.35270000      -2.39520000      -1.98320000
