18
Properties=species:S:1:pos:R:3 gdb_31650=T pbc="F F F"
C        0.05810000       1.35230000      -0.13290000
N       -0.00810000      -0.06470000       0.16000000
C       -1.24500000      -0.68450000       0.07220000
C       -2.50100000      -0.13480000       0.08370000
N       -3.38060000      -1.23240000       0.03290000
C       -4.82500000      -1.18760000       0.02940000
C       -2.59440000      -2.32690000      -0.01850000
O       -3.14580000      -3.55400000      -0.08660000
N       -1.31100000      -2.06510000       0.00090000
H        1.09830000       1.68330000      -0.08920000
H       -0.35810000       1.61940000      -1.11880000
H       -0.49970000       1.91340000       0.62600000
H        0.71520000      -0.62000000      -0.27430000
H       -2.86690000       0.87500000       0.12940000
H       -5.19690000      -0.63040000      -0.83750000
H       -5.20760000      -2.20740000      -0.01790000
H       -5.20320000      -0.71010000       0.93990000
H       -2.40750000      -4.17510000      -0.09860000
