19
Properties=species:S:1:pos:R:3 gdb_86151=T pbc="F F F"
C        0.70970000       1.30310000      -0.29840000
C       -0.03370000       0.03820000       0.11610000
O        0.02980000      -1.00310000      -0.88440000
C        1.14010000      -1.87310000      -0.65990000
C        2.22750000      -1.75180000      -1.72510000
C        1.62280000      -1.51780000       0.73870000
O        2.67940000      -1.77560000       1.25900000
C        0.55450000      -0.63550000       1.37040000
O        1.07650000       0.21420000       2.34890000
H        1.78780000       1.13200000      -0.38320000
H        0.33610000       1.65160000      -1.26460000
H        0.55870000       2.08710000       0.44810000
H       -1.09740000       0.25940000       0.23790000
H        0.76360000      -2.90710000      -0.64860000
H        2.62820000      -0.73580000      -1.76680000
H        3.04650000      -2.43860000      -1.49300000
H        1.81800000      -2.00350000      -2.70620000
H       -0.21370000      -1.30950000       1.78980000
H        1.94010000      -0.15530000       2.58890000
