17
Properties=species:S:1:pos:R:3 gdb_22293=T pbc="F F F"
O       -0.00980000       1.32040000       0.28570000
N       -0.00510000      -0.07340000       0.44810000
C       -1.05640000      -0.60510000      -0.04000000
C       -1.20000000      -2.10040000       0.01770000
C       -1.91730000      -2.56100000      -1.24860000
O       -3.23070000      -1.99200000      -1.32620000
C       -3.39560000      -0.67020000      -1.02210000
N       -4.54320000      -0.13770000      -0.99540000
C       -2.15680000       0.15170000      -0.74390000
H        0.81630000       1.57810000       0.70830000
H       -0.22180000      -2.57620000       0.11950000
H       -1.80980000      -2.39380000       0.88270000
H       -1.34080000      -2.29260000      -2.14430000
H       -2.07110000      -3.64200000      -1.25430000
H       -5.25580000      -0.83030000      -1.23600000
H       -2.44940000       1.04140000      -0.18490000
H       -1.75770000       0.52370000      -1.69910000
