21
Properties=species:S:1:pos:R:3 gdb_104335=T pbc="F F F"
C       -0.15340000       1.62460000      -0.09710000
C       -0.04070000       0.09450000      -0.07020000
C       -1.43290000      -0.55090000      -0.00610000
O       -2.15350000      -0.14870000       1.13990000
C        0.75860000      -0.44570000      -1.26960000
C        2.24250000      -0.29910000      -1.05800000
C        2.76530000      -0.06290000       0.14180000
C        1.90840000       0.05490000       1.36830000
O        0.57100000      -0.35620000       1.15500000
H        0.82930000       2.10230000      -0.11880000
H       -0.69810000       1.94490000      -0.99080000
H       -0.70600000       1.97110000       0.77860000
H       -2.02210000      -0.25360000      -0.88000000
H       -1.30740000      -1.64480000      -0.03420000
H       -1.55810000      -0.30790000       1.88280000
H        0.51230000      -1.50430000      -1.43560000
H        0.45490000       0.08190000      -2.18220000
H        2.88460000      -0.39660000      -1.92930000
H        3.83570000       0.06200000       0.28050000
H        2.29340000      -0.59220000       2.16650000
H        1.94800000       1.08690000       1.75970000
