21
Properties=species:S:1:pos:R:3 gdb_66250=T pbc="F F F"
O        0.07960000       1.45420000       0.08790000
C        0.01350000       0.02900000      -0.03080000
C        0.80420000      -0.47260000      -1.25640000
C        2.23310000      -0.66030000      -0.72790000
C        2.00840000      -1.31520000       0.64790000
C        0.70090000      -0.67810000       1.18300000
C       -1.47620000      -0.25670000      -0.06850000
C       -2.23920000      -0.48290000      -1.29860000
O       -1.87130000      -1.57450000      -0.44460000
H        0.99840000       1.69990000       0.23500000
H        0.39810000      -1.44210000      -1.56750000
H        0.72390000       0.22650000      -2.09250000
H        2.86420000      -1.25760000      -1.39140000
H        2.72840000       0.31420000      -0.61520000
H        1.87070000      -2.39370000       0.51670000
H        2.85400000      -1.18230000       1.32820000
H        0.88880000       0.07100000       1.95840000
H        0.04090000      -1.43110000       1.62180000
H       -2.01040000       0.14750000       0.79280000
H       -3.30230000      -0.24960000      -1.32130000
H       -1.73680000      -0.45890000      -2.26300000
