17
Properties=species:S:1:pos:R:3 gdb_35797=T pbc="F F F"
N        0.00460000      -1.14990000      -0.05220000
C        0.02560000       0.00470000      -0.03110000
C       -0.02360000       1.46910000       0.02000000
C       -0.83560000       1.96380000       1.23820000
N       -0.92910000       3.42110000       1.25830000
C        0.29510000       4.09580000       0.87480000
C        1.59060000       3.88700000       1.61190000
C        1.42300000       3.34120000       0.20890000
O        1.31450000       1.94210000       0.09000000
H       -0.51360000       1.82580000      -0.90120000
H       -1.84400000       1.54300000       1.22200000
H       -0.33870000       1.60270000       2.14510000
H       -1.65740000       3.70640000       0.61150000
H        0.10320000       5.10350000       0.52200000
H        2.23140000       4.74740000       1.76860000
H        1.62700000       3.14490000       2.40140000
H        1.97770000       3.78100000      -0.61610000
