19
Properties=species:S:1:pos:R:3 gdb_84349=T pbc="F F F"
C        0.83600000       1.46450000       0.07940000
C        0.08950000       0.12330000      -0.00450000
C        0.51940000      -0.71240000      -1.18640000
C        1.28420000      -1.74660000      -0.84210000
C        1.49970000      -1.81860000       0.66020000
C        2.84160000      -1.39900000       1.05970000
C        3.92440000      -1.01350000       1.41870000
C        0.38680000      -0.83890000       1.19120000
O        0.67120000      -0.22590000       2.42150000
H        1.92030000       1.31520000       0.08780000
H        0.59310000       2.09740000      -0.78000000
H        0.55310000       1.99810000       0.99100000
H       -0.98600000       0.33720000      -0.03900000
H        0.25150000      -0.45750000      -2.20670000
H        1.74360000      -2.45610000      -1.52000000
H        1.32850000      -2.82810000       1.05340000
H        4.89460000      -0.69980000       1.71650000
H       -0.50800000      -1.44580000       1.36090000
H        1.60350000       0.02740000       2.41610000
