17
Properties=species:S:1:pos:R:3 gdb_44686=T pbc="F F F"
O       -0.17140000       0.11940000       0.35240000
C       -0.04420000       1.25580000       0.02550000
O       -1.01250000       2.10440000      -0.44650000
C       -0.03270000       3.20430000      -0.60520000
C       -0.35670000       4.43820000       0.16160000
C        0.50270000       4.94690000       1.04570000
C        1.79210000       4.25900000       1.42090000
C        1.64630000       2.73010000       1.33440000
C        1.07690000       2.29860000      -0.02810000
H        0.06470000       3.41220000      -1.67580000
H       -1.28980000       4.94090000      -0.07560000
H        0.27540000       5.89090000       1.53390000
H        2.60830000       4.60490000       0.77030000
H        2.08250000       4.54250000       2.43790000
H        2.60390000       2.23470000       1.51430000
H        0.96910000       2.40630000       2.13120000
H        1.86570000       2.04920000      -0.74080000
