18
Properties=species:S:1:pos:R:3 gdb_31744=T pbc="F F F"
C       -0.01740000       1.39180000       0.00900000
O        0.00480000      -0.02060000       0.00290000
C       -1.18770000      -0.66090000       0.01170000
C       -1.39260000      -2.01950000       0.01030000
C       -2.80610000      -2.20590000       0.02160000
O       -3.36760000      -3.44230000       0.02340000
C       -4.77870000      -3.46110000       0.03490000
C       -3.42060000      -0.97470000       0.02970000
N       -2.39780000      -0.02420000       0.02320000
H        1.02380000       1.71690000       0.00130000
H       -0.52090000       1.79510000      -0.88130000
H       -0.50550000       1.78760000       0.91110000
H       -0.63490000      -2.78420000       0.00220000
H       -5.19240000      -2.96220000      -0.85310000
H       -5.08230000      -4.50960000       0.03480000
H       -5.17780000      -2.96660000       0.93200000
H       -4.45300000      -0.67660000       0.03910000
H       -2.54250000       0.96760000       0.02700000
