17
Properties=species:S:1:pos:R:3 gdb_28490=T pbc="F F F"
C        0.01370000       1.48160000       0.02480000
C       -0.00600000      -0.02250000      -0.00890000
N       -0.13120000      -0.61750000      -1.19310000
C       -0.11480000      -1.95960000      -1.18870000
C        0.00540000      -2.71760000      -0.04030000
N       -0.02010000      -4.12590000       0.00910000
C        0.09300000      -1.97990000       1.16310000
N        0.22100000      -2.65090000       2.36240000
N        0.09850000      -0.65250000       1.17280000
H        0.97060000       1.84320000       0.41640000
H       -0.13770000       1.88160000      -0.97810000
H       -0.76620000       1.86090000       0.69280000
H       -0.20500000      -2.45070000      -2.15780000
H       -0.03500000      -4.54410000      -0.91350000
H        0.76450000      -4.50480000       0.53030000
H       -0.26990000      -3.53380000       2.40690000
H        0.07750000      -2.05690000       3.16710000
