24
Properties=species:S:1:pos:R:3 gdb_119039=T pbc="F F F"
C       -1.64710000      -0.07130000       0.39610000
C       -0.14550000       0.08310000       0.11820000
C        0.73890000      -0.39650000       1.26410000
C        0.53550000       0.38090000       2.56180000
C        1.63760000       0.22720000       3.60350000
O        1.21970000       0.95650000       4.75280000
C        1.11250000      -1.84630000       1.29380000
N        2.12080000      -0.83190000       1.01340000
C        2.71440000      -0.78860000      -0.31280000
H       -1.96610000       0.52680000       1.25440000
H       -2.23480000       0.25230000      -0.46850000
H       -1.90200000      -1.11590000       0.60410000
H        0.09810000      -0.46640000      -0.79560000
H        0.07880000       1.13910000      -0.08520000
H        0.43850000       1.45010000       2.33090000
H       -0.41290000       0.08290000       3.02430000
H        1.79450000      -0.83430000       3.84810000
H        2.58530000       0.60840000       3.20340000
H        1.92880000       0.91750000       5.40060000
H        1.22060000      -2.39050000       2.22940000
H        0.76390000      -2.45820000       0.46040000
H        2.06240000      -1.14380000      -1.12540000
H        3.02320000       0.23630000      -0.54370000
H        3.61100000      -1.41750000      -0.31120000
