19
Properties=species:S:1:pos:R:3 gdb_71946=T pbc="F F F"
O       -0.01320000       1.39330000       0.03620000
C        0.02740000      -0.01390000       0.00050000
C        0.22710000      -0.65360000      -1.41330000
C       -1.13360000      -1.39600000      -1.29200000
C       -1.06380000      -2.76440000      -0.57180000
C       -1.02150000      -2.03390000       0.80070000
O        0.29740000      -1.94470000       1.34470000
C        0.82770000      -0.64200000       1.14630000
C       -1.35960000      -0.69300000       0.09440000
H        0.85890000       1.72520000      -0.20490000
H        0.20140000       0.12470000      -2.18020000
H        1.11660000      -1.27470000      -1.55710000
H       -1.81520000      -1.30190000      -2.13670000
H       -1.99240000      -3.32960000      -0.69510000
H       -0.21370000      -3.41740000      -0.78690000
H       -1.70230000      -2.40610000       1.57100000
H        1.89940000      -0.73650000       0.93040000
H        0.70500000      -0.01830000       2.04520000
H       -2.22440000      -0.10200000       0.38830000
