18
Properties=species:S:1:pos:R:3 gdb_117412=T pbc="F F F"
C       -0.17160000       1.57520000       0.01280000
C       -0.03100000       0.05150000       0.00370000
C       -1.38670000      -0.65650000       0.01110000
C       -1.26780000      -2.16240000       0.00190000
O       -0.25070000      -2.80530000      -0.01090000
O       -2.49990000      -2.74170000       0.01020000
C       -2.47280000      -4.17150000       0.00220000
C       -3.85370000      -4.65030000       0.01440000
N       -4.93120000      -5.06410000       0.02370000
H        0.80920000       2.05910000       0.00740000
H       -0.72320000       1.93080000      -0.86460000
H       -0.70880000       1.92150000       0.90280000
H        0.53570000      -0.27110000      -0.87610000
H        0.55000000      -0.28020000       0.87070000
H       -1.98110000      -0.37430000       0.88920000
H       -1.99540000      -0.36500000      -0.85410000
H       -1.95270000      -4.54130000      -0.88740000
H       -1.93390000      -4.55090000       0.87660000
