17
Properties=species:S:1:pos:R:3 gdb_39247=T pbc="F F F"
C       -0.00920000       1.47080000      -0.34460000
O        1.07320000       2.10260000       0.35030000
C        2.02400000       1.15300000       0.85430000
C        2.15000000       1.33330000       2.40440000
N        0.86400000       0.79690000       2.94850000
C        0.46490000       0.00330000       2.04740000
N       -0.83180000      -0.19350000       1.43040000
C       -0.09770000       0.00260000       0.10620000
C        1.28060000      -0.17210000       0.78910000
H       -0.91990000       2.03380000      -0.12470000
H        0.17380000       1.49720000      -1.42970000
H        2.97490000       1.23260000       0.31480000
H        3.03220000       0.81530000       2.80320000
H        2.21920000       2.38930000       2.67770000
H       -1.21900000      -1.13060000       1.50720000
H       -0.40980000      -0.68310000      -0.68250000
H        1.83250000      -1.09790000       0.63880000
