20
Properties=species:S:1:pos:R:3 gdb_91130=T pbc="F F F"
C       -0.02810000       1.58970000      -0.13030000
C        0.02950000       0.07470000      -0.03520000
C        0.86940000      -0.79830000      -1.01740000
C        1.26410000      -1.63570000       0.22290000
C        2.66070000      -1.42340000       0.86290000
O        3.54340000      -0.54400000       0.15040000
C        3.05620000       0.60350000       0.88850000
C        2.02740000      -0.25780000       1.66750000
N        0.66260000      -0.60640000       1.15390000
H        0.94160000       2.05680000      -0.31060000
H       -0.68840000       1.87900000      -0.95510000
H       -0.44510000       2.01120000       0.79100000
H       -1.00700000      -0.28660000      -0.03700000
H        0.31890000      -1.31410000      -1.80740000
H        1.72850000      -0.28240000      -1.45400000
H        0.84780000      -2.64660000       0.28440000
H        3.17570000      -2.29290000       1.27850000
H        3.84070000       1.00490000       1.54360000
H        2.70240000       1.40070000       0.23240000
H        2.05020000      -0.14540000       2.75240000
