16
Properties=species:S:1:pos:R:3 gdb_126855=T pbc="F F F"
C       -0.00120000       1.53140000      -0.08240000
C       -0.03770000       0.01130000       0.07380000
N       -1.40690000      -0.51950000       0.02110000
N       -1.95570000      -0.78850000       1.21340000
N       -3.14790000      -1.24400000       1.28590000
C       -3.85120000      -1.45530000       0.12270000
C       -3.35880000      -1.21030000      -1.11480000
C       -2.02310000      -0.68250000      -1.24640000
O       -1.43070000      -0.39070000      -2.26900000
H        1.03420000       1.87970000      -0.02610000
H       -0.41170000       1.82700000      -1.05010000
H       -0.57130000       2.01750000       0.71440000
H        0.51810000      -0.46900000      -0.73380000
H        0.36800000      -0.30160000       1.03670000
H       -4.85210000      -1.84440000       0.27760000
H       -3.92680000      -1.38630000      -2.01990000
