13
Properties=species:S:1:pos:R:3 gdb_10381=T pbc="F F F"
O       -0.79050000       0.75860000       0.49880000
C        0.17800000       0.83930000      -0.20290000
C        1.31390000       1.85490000       0.02720000
C        1.31110000       2.55020000       1.40620000
C        2.55020000       1.67740000       1.68780000
O        2.50000000       1.09380000       0.35270000
C        1.48690000       2.69860000      -1.15700000
N        1.58880000       3.35710000      -2.10150000
H        0.37640000       0.14500000      -1.04410000
H        1.48830000       3.62380000       1.37750000
H        0.41590000       2.32600000       1.98500000
H        3.48860000       2.21730000       1.84220000
H        2.43340000       0.91140000       2.45980000
