17
Properties=species:S:1:pos:R:3 gdb_28791=T pbc="F F F"
C       -0.18740000       1.47210000       0.07060000
C       -0.06650000      -0.01120000       0.00310000
N       -0.12780000      -0.75030000      -1.08130000
C        0.02660000      -2.07750000      -0.69540000
C        0.17940000      -2.10740000       0.65800000
O        0.41780000      -2.98660000       1.66600000
C        0.20930000      -2.25290000       2.89040000
C        0.37460000      -0.74890000       2.53180000
N        0.10800000      -0.81630000       1.10820000
H        0.71710000       1.94410000       0.47370000
H       -0.34960000       1.84930000      -0.94000000
H       -1.02960000       1.78920000       0.69790000
H        0.01320000      -2.88740000      -1.40450000
H       -0.80580000      -2.45200000       3.25410000
H        0.93260000      -2.60510000       3.62730000
H       -0.34160000      -0.12090000       3.06730000
H        1.38730000      -0.37970000       2.73320000
