19
Properties=species:S:1:pos:R:3 gdb_103223=T pbc="F F F"
C        0.06550000       1.35940000      -0.15370000
O       -0.05610000      -0.00060000       0.20660000
C       -1.36430000      -0.53860000       0.14140000
C       -2.30110000       0.06950000       1.17640000
C       -1.90550000      -0.79680000      -1.29090000
C       -0.93670000      -2.00670000      -1.48800000
O       -1.98600000      -2.93190000      -1.90490000
C       -2.59130000      -2.12860000      -0.85080000
C       -1.30350000      -2.07200000       0.02810000
H        1.13460000       1.58340000      -0.18670000
H       -0.36610000       1.56280000      -1.14490000
H       -0.40680000       2.03350000       0.57450000
H       -2.50400000       1.12530000       0.97190000
H       -3.26260000      -0.45200000       1.18890000
H       -1.85740000      -0.00280000       2.17440000
H       -2.26020000      -0.10810000      -2.05770000
H        0.03360000      -2.05700000      -1.97580000
H       -3.62520000      -2.32560000      -0.57180000
H       -0.96610000      -2.80820000       0.75680000
