18
Properties=species:S:1:pos:R:3 gdb_110184=T pbc="F F F"
C       -0.01900000       1.57630000       0.12130000
C       -0.07190000       0.04550000       0.15870000
C        0.83100000      -0.53930000       1.24340000
C        1.05340000      -2.08520000       1.27580000
O        2.47210000      -1.89870000       1.04860000
C        2.32900000      -0.52580000       0.98850000
N        3.17080000       0.37340000       0.76420000
C        0.73010000      -2.75990000       2.58520000
O        1.53200000      -3.02760000       3.43770000
H        1.00530000       1.92330000      -0.03710000
H       -0.64790000       1.96540000      -0.68460000
H       -0.37750000       2.00550000       1.06320000
H       -1.10020000      -0.29330000       0.33690000
H        0.22840000      -0.36340000      -0.81390000
H        0.57690000      -0.12520000       2.22460000
H        0.58230000      -2.62120000       0.44280000
H        4.10470000      -0.01200000       0.61410000
H       -0.35830000      -2.97100000       2.70780000
