23
Properties=species:S:1:pos:R:3 gdb_57570=T pbc="F F F"
C       -0.08270000       1.72320000      -0.07570000
C        0.04540000       0.19220000       0.06190000
C        0.87860000      -0.15510000       1.30460000
C       -1.36560000      -0.41060000       0.09550000
C       -1.70590000      -1.73210000       0.73220000
C       -2.24310000      -0.44990000       1.32190000
C        0.71030000      -0.33490000      -1.21070000
C        2.15150000      -0.54760000      -1.39470000
O        1.26190000      -1.65170000      -1.20000000
H        0.90050000       2.19730000      -0.16390000
H       -0.66860000       1.99570000      -0.96070000
H       -0.58890000       2.14410000       0.79840000
H        0.33290000       0.07270000       2.22400000
H        1.15320000      -1.21240000       1.31210000
H        1.79960000       0.43510000       1.32890000
H       -1.90720000      -0.20440000      -0.82620000
H       -2.38900000      -2.39220000       0.20920000
H       -0.93250000      -2.25100000       1.28610000
H       -1.83430000      -0.12340000       2.27180000
H       -3.29620000      -0.22120000       1.19930000
H        0.13360000      -0.11890000      -2.11420000
H        2.58290000      -0.46650000      -2.39190000
H        2.84560000      -0.36220000      -0.57800000
