19
Properties=species:S:1:pos:R:3 gdb_84792=T pbc="F F F"
C       -0.72550000       1.07010000       0.23010000
C        0.35410000       0.03470000      -0.00340000
O        1.17530000      -0.23940000       0.84330000
C        0.32330000      -0.68790000      -1.35060000
C        1.65590000      -1.37580000      -1.72900000
C        1.24390000      -2.76180000      -2.15140000
C       -0.05190000      -2.99930000      -1.95950000
C       -0.76390000      -1.83470000      -1.31890000
O       -1.24890000      -2.14720000      -0.01390000
H       -0.70330000       1.83740000      -0.55150000
H       -1.70400000       0.58000000       0.18410000
H       -0.59480000       1.53200000       1.20940000
H        0.02970000       0.02590000      -2.12600000
H        2.17530000      -0.83790000      -2.53020000
H        2.33720000      -1.40180000      -0.87070000
H        1.95460000      -3.47570000      -2.55470000
H       -0.56910000      -3.93090000      -2.15930000
H       -1.66250000      -1.53070000      -1.86470000
H       -0.51100000      -2.51190000       0.48990000
