22
Properties=species:S:1:pos:R:3 gdb_120340=T pbc="F F F"
C       -0.11480000       1.61870000       0.03920000
C        0.02560000       0.09500000      -0.02440000
C        0.70680000      -0.48900000       1.21820000
C        0.80450000      -2.02660000       1.23010000
C        1.66810000      -2.62960000       0.13080000
C        2.61730000      -3.44040000       0.60320000
C        2.58040000      -3.47670000       2.09480000
N        2.85990000      -2.13820000       2.69780000
C        1.46230000      -2.58380000       2.49630000
H        0.86460000       2.10160000       0.12810000
H       -0.60130000       2.01410000      -0.85800000
H       -0.71230000       1.92570000       0.90510000
H       -0.96750000      -0.35910000      -0.14520000
H        0.59480000      -0.17670000      -0.92190000
H        1.71690000      -0.07880000       1.32510000
H        0.14780000      -0.17300000       2.10990000
H       -0.21710000      -2.43070000       1.15310000
H        1.52120000      -2.39090000      -0.91640000
H        3.34730000      -3.97800000       0.00980000
H        2.85880000      -4.36510000       2.65150000
H        3.09160000      -2.26990000       3.68140000
H        0.85250000      -2.78170000       3.37170000
