19
Properties=species:S:1:pos:R:3 gdb_38249=T pbc="F F F"
C       -0.02840000       1.61990000      -0.01790000
C        1.48080000       1.31130000      -0.00110000
C        1.14250000       0.12950000       0.97000000
C       -0.08650000       0.05480000       0.02060000
C       -1.36430000      -0.73050000      -0.10320000
O       -1.64780000      -0.72140000      -1.52050000
C       -0.52090000      -0.25220000      -2.28450000
C        0.63850000      -0.28350000      -1.28930000
O        1.68650000       0.69330000      -1.29410000
H       -0.39990000       2.06020000       0.90950000
H       -0.41830000       2.15170000      -0.88700000
H        2.26130000       2.04590000       0.18770000
H        1.82540000      -0.72320000       0.99270000
H        0.91470000       0.47720000       1.97900000
H       -1.24920000      -1.76750000       0.24450000
H       -2.21600000      -0.28390000       0.42000000
H       -0.38770000      -0.92320000      -3.13860000
H       -0.70240000       0.76200000      -2.66330000
H        1.08170000      -1.28760000      -1.26690000
