16
Properties=species:S:1:pos:R:3 gdb_92864=T pbc="F F F"
O       -0.05220000       1.47190000       0.08030000
C        0.03020000       0.06700000      -0.00610000
C        0.49520000      -0.58990000       1.34670000
N       -0.69940000      -0.66070000       2.22400000
C       -1.67230000      -0.58230000       1.42070000
O       -2.98310000      -0.40580000       1.64470000
C       -3.54570000      -0.04850000       0.35710000
O       -2.48600000       0.28540000      -0.51160000
C       -1.39630000      -0.49530000      -0.05100000
H        0.81890000       1.80760000       0.31410000
H        0.64790000      -0.25120000      -0.85710000
H        0.92250000      -1.58760000       1.17730000
H        1.27120000       0.01610000       1.82810000
H       -4.11720000      -0.91390000      -0.01020000
H       -4.19250000       0.82130000       0.48840000
H       -1.39120000      -1.48970000      -0.52770000
