19
Properties=species:S:1:pos:R:3 gdb_89595=T pbc="F F F"
C       -0.32520000       1.53670000       0.16710000
C        0.05070000       0.07240000       0.03680000
C        1.09460000      -0.38820000      -1.02270000
C        1.87760000      -0.97740000       0.15140000
C        2.47130000      -2.36750000       0.18850000
C        3.70120000      -2.46380000      -0.60040000
N        4.66620000      -2.52180000      -1.23310000
C        2.20070000       0.07070000       1.13520000
N        0.85170000      -0.53830000       1.17330000
H        0.54790000       2.19430000       0.21010000
H       -0.92830000       1.84640000      -0.69290000
H       -0.91810000       1.69810000       1.07320000
H       -0.86180000      -0.52460000      -0.04250000
H        0.70330000      -1.13550000      -1.71600000
H        1.61130000       0.38540000      -1.59750000
H        2.68730000      -2.64700000       1.22530000
H        1.75170000      -3.10050000      -0.19570000
H        2.80180000      -0.20640000       1.99590000
H        2.33020000       1.09950000       0.81190000
