20
Properties=species:S:1:pos:R:3 gdb_103123=T pbc="F F F"
C        0.08380000       1.32740000      -0.38240000
C       -0.04890000      -0.11870000       0.03460000
N        1.05380000      -1.05300000      -0.10780000
C        2.26820000      -0.82350000      -0.71600000
O        2.42010000      -0.27520000      -1.78250000
C        0.62870000      -0.71530000       1.25050000
C        1.53880000       0.09960000       2.14690000
C       -0.06250000      -1.87450000       1.95380000
O        0.86780000      -2.84830000       2.39470000
H        1.02340000       1.77500000      -0.05540000
H        0.04560000       1.40800000      -1.47180000
H       -0.74260000       1.90910000       0.03850000
H       -1.01150000      -0.55890000      -0.22840000
H        3.10420000      -1.27840000      -0.14770000
H        2.14150000       0.82100000       1.59180000
H        0.94620000       0.64570000       2.88870000
H        2.21210000      -0.57020000       2.68910000
H       -0.57620000      -1.51450000       2.85170000
H       -0.81530000      -2.31350000       1.28390000
H        1.28120000      -3.21490000       1.60460000
