12
Properties=species:S:1:pos:R:3 gdb_124170=T pbc="F F F"
C       -0.11350000       1.43680000       0.04380000
C       -0.02820000      -0.01000000      -0.01460000
C        0.04560000      -1.21160000      -0.06430000
C        0.12260000      -2.61250000      -0.11830000
N        1.11590000      -3.30530000      -0.56520000
O        0.70540000      -4.64610000      -0.40390000
C       -0.54010000      -4.67930000       0.14350000
O       -1.18120000      -5.63750000       0.41180000
O       -0.92160000      -3.36470000       0.33020000
H        0.68720000       1.84860000       0.66700000
H       -0.02190000       1.87220000      -0.95670000
H       -1.07240000       1.75230000       0.46720000
