20
Properties=species:S:1:pos:R:3 gdb_37172=T pbc="F F F"
C        0.06950000       1.53230000      -0.00210000
C        1.33270000       0.75170000       0.08120000
C        1.94240000       0.25590000       1.44090000
C        1.47460000      -1.21940000       1.29260000
C        0.06760000      -0.50860000       1.37780000
C       -0.89200000      -1.04710000       2.43690000
C        0.14030000      -0.47950000       3.48970000
C        0.74130000       0.46950000       2.38300000
N       -0.01050000       0.05970000       0.01240000
H       -0.29600000       2.10440000       0.84280000
H       -0.19410000       1.96000000      -0.96580000
H        1.96810000       0.66140000      -0.79550000
H        2.97470000       0.55260000       1.63610000
H        1.68180000      -1.71910000       0.34450000
H        1.72400000      -1.86950000       2.13010000
H       -1.83600000      -0.49520000       2.47500000
H       -1.10290000      -2.11990000       2.44190000
H       -0.30580000       0.07360000       4.31780000
H        0.80870000      -1.23430000       3.90450000
H        0.38160000       1.48790000       2.52330000
