16
Properties=species:S:1:pos:R:3 gdb_31591=T pbc="F F F"
N        0.17910000       1.34810000       0.14980000
C        0.01450000      -0.01900000       0.05240000
C       -1.08390000      -0.82430000       0.00970000
N       -2.42310000      -0.37800000      -0.03990000
N       -0.65420000      -2.15000000       0.02820000
C        0.63670000      -2.08990000       0.07150000
C        1.62270000      -3.20380000      -0.00100000
O        2.11600000      -3.42600000      -1.31950000
O        1.12080000      -0.80220000       0.09950000
H        0.93420000       1.70850000      -0.42110000
H       -0.69330000       1.82070000      -0.05420000
H       -2.93600000      -0.86570000      -0.76860000
H       -2.90980000      -0.57140000       0.83160000
H        2.50070000      -2.96920000       0.60710000
H        1.14220000      -4.10040000       0.41090000
H        1.35500000      -3.63430000      -1.87250000
