12
Properties=species:S:1:pos:R:3 gdb_131276=T pbc="F F F"
O        0.08540000       1.28510000       0.15770000
C        0.07110000      -0.04230000       0.01850000
N        0.09960000      -0.69280000      -1.12900000
C        0.06700000      -1.99890000      -0.70180000
C        0.02000000      -2.12530000       0.66790000
N        0.02280000      -0.81900000       1.14780000
N       -0.01110000      -3.41310000       1.05160000
N        0.01510000      -4.13040000      -0.05120000
N        0.06280000      -3.27950000      -1.12800000
H        0.12020000       1.65730000      -0.73350000
H       -0.00350000      -0.48100000       2.09410000
H        0.08780000      -3.67270000      -2.05360000
