14
Properties=species:S:1:pos:R:3 gdb_78730=T pbc="F F F"
O        0.01490000       1.33090000       0.08860000
C        0.01320000      -0.07290000      -0.01210000
C       -1.42510000      -0.56230000      -0.13340000
C       -1.38510000      -0.45640000      -1.64770000
C        0.17230000      -0.59480000      -1.47510000
O        0.07240000      -2.03920000      -1.32480000
C       -1.30870000      -1.81950000      -1.02990000
C       -2.23460000      -2.90250000      -1.01010000
N       -3.00020000      -3.76920000      -0.99150000
H        0.93070000       1.62850000       0.08290000
H        0.66220000      -0.55140000       0.73250000
H       -2.25710000      -0.40620000       0.53980000
H       -2.04830000      -0.02790000      -2.38430000
H        0.96440000      -0.27000000      -2.14580000
