15
Properties=species:S:1:pos:R:3 gdb_11105=T pbc="F F F"
C       -0.13960000       1.44600000       0.32070000
N       -0.24680000      -0.00660000       0.31990000
C        0.62530000      -0.68780000       0.89560000
C        0.85950000      -2.16630000       1.10460000
C        2.14330000      -1.69380000       1.84220000
O        1.77060000      -0.29610000       1.58450000
C        2.26460000      -1.99970000       3.25230000
C        2.36590000      -2.27400000       4.41760000
H        0.74000000       1.83120000       0.84910000
H       -0.11280000       1.80210000      -0.71490000
H       -1.03930000       1.86920000       0.78040000
H        0.12350000      -2.66310000       1.73700000
H        1.02510000      -2.74760000       0.19670000
H        3.07240000      -1.92360000       1.31190000
H        2.45750000      -2.51020000       5.44930000
