20
Properties=species:S:1:pos:R:3 gdb_11110=T pbc="F F F"
C        0.48810000       1.27860000      -0.53280000
C        0.08190000      -0.15920000      -0.19710000
C       -1.32450000      -0.26830000       0.39480000
C       -2.48450000      -0.08920000      -0.63030000
C       -2.65510000      -1.64320000      -0.67830000
C       -1.80910000      -1.72700000       0.63480000
C       -3.99380000      -2.19420000      -0.67960000
C       -5.11230000      -2.63720000      -0.65960000
H        1.49450000       1.31840000      -0.96070000
H       -0.19810000       1.72990000      -1.25740000
H        0.48130000       1.90850000       0.36370000
H        0.15150000      -0.78190000      -1.09970000
H        0.79820000      -0.58430000       0.51840000
H       -1.39370000       0.38220000       1.27260000
H       -3.36160000       0.39160000      -0.19220000
H       -2.25110000       0.40260000      -1.57830000
H       -2.08780000      -2.05830000      -1.51760000
H       -1.04490000      -2.50800000       0.67250000
H       -2.45120000      -1.81780000       1.51350000
H       -6.09770000      -3.03200000      -0.64830000
