22
Properties=species:S:1:pos:R:3 gdb_97936=T pbc="F F F"
C       -0.04700000       0.51670000      -1.21150000
C       -0.38850000       0.38290000       0.28390000
C       -1.57500000      -0.43100000       0.53000000
C       -2.55890000      -1.10160000       0.71370000
C       -3.73690000      -1.94020000       0.92500000
C       -3.81390000      -3.11280000      -0.04820000
C       -5.13260000      -3.68590000      -0.44270000
N       -4.30100000      -2.99050000      -1.41850000
C       -4.76220000      -1.70440000      -1.91950000
H        0.84800000       1.13170000      -1.34590000
H        0.13820000      -0.46450000      -1.65680000
H       -0.87130000       0.98380000      -1.75760000
H        0.46810000      -0.05030000       0.81640000
H       -0.53550000       1.38130000       0.71600000
H       -3.71880000      -2.34940000       1.94430000
H       -4.64710000      -1.33280000       0.86700000
H       -2.96240000      -3.78620000       0.03720000
H       -5.26120000      -4.75520000      -0.59050000
H       -6.02080000      -3.17120000      -0.07350000
H       -5.38270000      -1.12990000      -1.21350000
H       -3.89750000      -1.09180000      -2.19070000
H       -5.35940000      -1.87660000      -2.82060000
