23
Properties=species:S:1:pos:R:3 gdb_109781=T pbc="F F F"
C       -1.50160000       2.15760000      -1.76150000
C       -0.89990000       1.21620000      -0.71080000
C       -1.85570000       0.10620000      -0.31380000
C       -1.96270000      -1.20200000      -1.07640000
C       -1.18690000      -1.50360000      -2.34390000
C       -1.37750000      -1.18670000       0.32290000
C        0.05360000      -1.42960000       0.69190000
C        0.82150000      -2.60410000       0.24880000
O        1.08710000      -1.30600000      -0.28920000
H       -0.81060000       2.97010000      -2.00750000
H       -1.73250000       1.62070000      -2.68720000
H       -2.43280000       2.60980000      -1.40170000
H        0.04080000       0.79870000      -1.07860000
H       -0.64020000       1.79550000       0.18550000
H       -2.79880000       0.48470000       0.07730000
H       -2.97120000      -1.60980000      -1.10600000
H       -0.17060000      -1.11280000      -2.31660000
H       -1.11870000      -2.58550000      -2.50670000
H       -1.70320000      -1.08040000      -3.21300000
H       -2.03150000      -1.58500000       1.09750000
H        0.33490000      -1.00200000       1.65740000
H        1.60830000      -3.01300000       0.88110000
H        0.36250000      -3.30750000      -0.44330000
