20
Properties=species:S:1:pos:R:3 gdb_119857=T pbc="F F F"
C        0.10160000       1.55930000       0.07940000
C        0.11920000       0.02970000       0.04660000
C        0.58190000      -0.52500000      -1.31570000
C        0.64160000      -2.01790000      -1.34300000
C       -0.10970000      -2.90710000      -1.99980000
C        0.33580000      -4.31600000      -1.70320000
N        1.43410000      -4.09670000      -0.79220000
C        1.67140000      -2.76510000      -0.54340000
O        2.53920000      -2.30460000       0.17280000
H        1.10040000       1.96910000      -0.10690000
H       -0.57160000       1.96820000      -0.68300000
H       -0.23350000       1.93050000       1.05280000
H        0.79020000      -0.35520000       0.82090000
H       -0.88160000      -0.36030000       0.27020000
H       -0.07990000      -0.16310000      -2.11140000
H        1.58560000      -0.13250000      -1.52390000
H       -0.93410000      -2.69580000      -2.66940000
H       -0.47050000      -4.91120000      -1.24930000
H        0.65020000      -4.84260000      -2.61650000
H        1.99670000      -4.82320000      -0.38450000
