19
Properties=species:S:1:pos:R:3 gdb_98613=T pbc="F F F"
O       -0.61270000       1.52550000      -1.25630000
C       -0.76200000       0.13970000      -1.30010000
C       -1.51500000      -0.37800000      -0.07790000
O       -1.83360000       0.41680000       0.78580000
C       -1.79780000      -1.85390000      -0.03020000
C       -2.44920000      -2.52200000       1.21750000
C       -3.80710000      -1.86500000       0.81960000
C       -3.19870000      -2.40800000      -0.50430000
C       -2.83870000      -3.70270000       0.27840000
H       -0.99940000       1.78830000      -0.40450000
H       -1.30620000      -0.17780000      -2.20540000
H        0.21530000      -0.37270000      -1.33680000
H       -0.95480000      -2.40050000      -0.46920000
H       -2.00940000      -2.58230000       2.21280000
H       -4.70490000      -2.38080000       1.16960000
H       -3.88850000      -0.78680000       0.93900000
H       -3.60880000      -2.33260000      -1.51230000
H       -2.02350000      -4.31300000      -0.12020000
H       -3.68240000      -4.31740000       0.60130000
