14
Properties=species:S:1:pos:R:3 gdb_21853=T pbc="F F F"
O        0.00230000       1.44150000      -0.07720000
C        0.06950000       0.08170000      -0.03050000
C        0.17960000      -0.79210000      -1.09750000
C        0.29520000      -1.34060000      -2.51320000
C        0.32580000      -2.76540000      -1.81860000
N        0.20960000      -2.02440000      -0.55570000
N        0.13200000      -2.09440000       0.76850000
C        0.04470000      -0.78730000       1.09670000
H       -0.06730000       1.77560000       0.82210000
H       -0.56720000      -1.17510000      -3.16290000
H        1.20900000      -1.08350000      -3.05370000
H       -0.52640000      -3.41540000      -2.03310000
H        1.26010000      -3.32280000      -1.92280000
H       -0.03380000      -0.50300000       2.13720000
