15
Properties=species:S:1:pos:R:3 gdb_1912=T pbc="F F F"
C        0.09250000       1.50160000      -0.05400000
C       -0.11880000       0.03560000       0.13510000
C       -1.43040000      -0.76190000       0.12250000
C       -0.72760000      -1.83380000       1.04630000
O       -0.57350000      -3.13590000       0.55830000
C        0.53080000      -0.94810000       1.02180000
O        0.89010000      -0.86630000      -0.37100000
H        1.13220000       1.76920000       0.15140000
H       -0.13970000       1.79780000      -1.08310000
H       -0.55840000       2.07450000       0.61420000
H       -2.25910000      -0.25490000       0.62390000
H       -1.75460000      -1.11930000      -0.85820000
H       -1.19620000      -1.90640000       2.03050000
H       -0.03050000      -3.05400000      -0.23680000
H        1.33490000      -0.84960000       1.74340000
