18
Properties=species:S:1:pos:R:3 gdb_7844=T pbc="F F F"
C       -0.13170000       1.45750000       0.19520000
C        0.02580000      -0.05350000       0.15080000
O        1.07530000      -0.59360000       0.41480000
C       -1.21500000      -0.84010000      -0.25860000
C       -1.05070000      -2.33450000      -0.12950000
C       -1.37660000      -3.02730000       1.17870000
C       -2.25620000      -3.22230000      -0.03150000
O       -3.50690000      -2.59270000      -0.08260000
H        0.83610000       1.92730000       0.37450000
H       -0.56380000       1.83380000      -0.73840000
H       -0.82430000       1.73530000       0.99850000
H       -2.07850000      -0.48890000       0.31670000
H       -1.44370000      -0.56210000      -1.29880000
H       -0.20400000      -2.73530000      -0.67650000
H       -0.74540000      -3.84250000       1.51430000
H       -1.78080000      -2.40850000       1.97380000
H       -2.21380000      -4.18430000      -0.54220000
H       -4.09240000      -3.05020000       0.52950000
