18
Properties=species:S:1:pos:R:3 gdb_72518=T pbc="F F F"
C        0.03800000       1.49970000       0.07700000
C        0.01570000      -0.00030000      -0.03590000
C        0.64310000      -0.65560000      -1.28120000
N        0.09930000      -2.06230000      -1.25650000
C       -0.74040000      -2.13310000      -0.03550000
C        0.20290000      -2.00020000       1.16000000
O        0.62100000      -0.60910000       1.12320000
C       -1.34950000      -0.72410000      -0.03340000
O       -2.47250000      -0.30980000      -0.07940000
H        1.06360000       1.87940000       0.05560000
H       -0.52040000       1.94710000      -0.74990000
H       -0.42710000       1.81210000       1.01530000
H        0.35960000      -0.13160000      -2.20020000
H        1.73520000      -0.66470000      -1.20490000
H       -0.48590000      -2.21500000      -2.07140000
H       -1.41570000      -2.98540000      -0.02880000
H       -0.30050000      -2.19910000       2.11320000
H        1.07690000      -2.65270000       1.06050000
