21
Properties=species:S:1:pos:R:3 gdb_63176=T pbc="F F F"
C       -0.06160000       1.56580000      -0.01730000
C        0.02250000       0.05870000       0.03890000
O       -1.12960000      -0.59670000      -0.43530000
C        1.33000000      -0.67190000      -0.20170000
O        2.50650000       0.09430000      -0.16130000
C        2.94020000       0.16610000       1.20200000
C        1.66450000       0.08020000       2.06420000
C        0.69450000      -0.71000000       1.17180000
C        0.04270000      -1.94420000       1.75330000
H        0.90240000       2.03390000       0.18540000
H       -0.36600000       1.87890000      -1.02370000
H       -0.80500000       1.94790000       0.68990000
H       -1.20190000      -0.41090000      -1.37830000
H        1.35370000      -1.53580000      -0.86200000
H        3.61470000      -0.67460000       1.42490000
H        3.49970000       1.09780000       1.32470000
H        1.84740000      -0.45420000       3.00060000
H        1.28420000       1.07280000       2.32300000
H       -0.60530000      -1.68360000       2.59830000
H       -0.57230000      -2.45270000       1.01010000
H        0.80170000      -2.64500000       2.12030000
