20
Properties=species:S:1:pos:R:3 gdb_13505=T pbc="F F F"
C       -0.02650000       1.58000000      -0.06250000
C        0.02480000       0.05250000       0.00320000
O        0.81820000      -0.39120000       1.10390000
C       -1.37000000      -0.56420000       0.05320000
C       -2.23920000      -0.48130000      -1.22010000
O       -2.32810000      -1.91270000      -1.31850000
C       -1.52980000      -2.10310000      -0.12040000
C       -0.31730000      -2.97890000      -0.36920000
H        0.98630000       1.99110000      -0.08100000
H       -0.55700000       1.92580000      -0.95560000
H       -0.54700000       1.98830000       0.81320000
H        0.55500000      -0.32010000      -0.88080000
H        0.42230000      -0.03820000       1.90880000
H       -1.88330000      -0.19080000       0.94710000
H       -3.22270000      -0.01070000      -1.09750000
H       -1.74850000      -0.03960000      -2.09900000
H       -2.14520000      -2.54880000       0.67370000
H        0.28720000      -2.59820000      -1.19700000
H        0.31030000      -3.02500000       0.52470000
H       -0.64320000      -3.99090000      -0.62920000
