18
Properties=species:S:1:pos:R:3 gdb_85693=T pbc="F F F"
C       -0.75360000       1.32530000      -0.02090000
C       -0.03240000      -0.00710000      -0.04160000
O        1.18860000       0.03450000      -0.82680000
C        1.99780000      -0.48560000       0.26410000
C        3.13800000       0.34840000       0.59890000
C        4.08120000       1.03000000       0.90030000
C        0.76990000      -0.44160000       1.18620000
C        0.64730000      -0.02600000       2.59340000
N        0.46350000      -1.43970000       2.19120000
H       -0.10080000       2.11200000       0.36650000
H       -1.06610000       1.59920000      -1.03330000
H       -1.65140000       1.26820000       0.60510000
H       -0.69740000      -0.80090000      -0.41520000
H        2.32520000      -1.51260000       0.05480000
H        4.91810000       1.63210000       1.15590000
H        1.54310000       0.16960000       3.17560000
H       -0.22400000       0.55660000       2.88220000
H       -0.52570000      -1.67910000       2.16560000
