13
Properties=species:S:1:pos:R:3 gdb_131752=T pbc="F F F"
O        0.24870000       1.37880000       0.25550000
C        0.09360000       0.00290000       0.06190000
C       -1.33790000      -0.44650000      -0.07610000
N       -2.23540000       0.47360000      -0.11930000
O       -3.55920000       0.07200000      -0.26980000
C       -3.90310000      -1.25770000      -0.35650000
O       -5.05340000      -1.57200000      -0.47430000
C       -2.76130000      -2.19190000      -0.29820000
N       -1.54120000      -1.82030000      -0.17000000
H       -0.56320000       1.81290000      -0.03470000
H        0.62780000      -0.35440000      -0.83610000
H        0.53370000      -0.53740000       0.91130000
H       -3.00410000      -3.25000000      -0.37570000
