17
Properties=species:S:1:pos:R:3 gdb_72676=T pbc="F F F"
C       -0.16210000       1.56700000      -0.03670000
C        0.02050000       0.07870000       0.02690000
C       -1.17950000      -0.87770000       0.13440000
O       -0.51790000      -1.66430000       1.15930000
C        0.62380000      -0.77920000       1.19180000
C        1.68940000      -1.17710000       0.15020000
O        1.01840000      -0.42330000      -0.88670000
C        1.01100000      -0.33760000       2.50300000
C        1.35070000       0.05100000       3.58920000
H        0.79200000       2.07960000       0.11170000
H       -0.55270000       1.85350000      -1.01970000
H       -0.86740000       1.90590000       0.72750000
H       -2.10330000      -0.42790000       0.51900000
H       -1.38810000      -1.45540000      -0.77150000
H        2.69310000      -0.78300000       0.34650000
H        1.73230000      -2.25080000      -0.05880000
H        1.64540000       0.38700000       4.55280000
