21
Properties=species:S:1:pos:R:3 gdb_116150=T pbc="F F F"
C       -0.03930000       1.52290000       0.06730000
C        0.04500000       0.00800000      -0.01160000
C        0.82580000      -0.50700000      -1.22600000
C        1.00980000      -2.01900000      -1.09860000
O        1.57070000      -2.35080000       0.16570000
C        0.80910000      -1.83980000       1.24230000
C        1.55210000      -2.22640000       2.51590000
O        2.89840000      -1.81370000       2.49150000
O        0.68280000      -0.44540000       1.18390000
H        0.96360000       1.95770000       0.11250000
H       -0.55530000       1.92400000      -0.81040000
H       -0.58540000       1.82770000       0.96390000
H       -0.97550000      -0.41600000      -0.04550000
H        0.29680000      -0.26650000      -2.15490000
H        1.80630000      -0.01840000      -1.25410000
H        0.03950000      -2.53010000      -1.21560000
H        1.69280000      -2.41470000      -1.85480000
H       -0.19750000      -2.30350000       1.22120000
H        1.06830000      -1.73950000       3.36760000
H        1.45760000      -3.31720000       2.64020000
H        3.22300000      -2.02810000       1.60880000
