19
Properties=species:S:1:pos:R:3 gdb_63877=T pbc="F F F"
C       -0.10730000       1.59770000      -0.15880000
C        0.03040000       0.08660000      -0.02610000
O       -1.23050000      -0.54810000      -0.19150000
C        1.15520000      -0.63020000      -0.86000000
C        1.72700000      -1.22690000       0.42970000
C        2.11700000      -0.16190000       1.38450000
C        0.64280000      -0.48070000       1.26740000
C       -0.09990000      -1.05870000       2.40080000
O        0.42950000      -1.56120000       3.36890000
H        0.84080000       2.11190000       0.02050000
H       -0.43690000       1.86460000      -1.17100000
H       -0.84830000       1.97450000       0.55290000
H       -1.60540000      -0.25300000      -1.02840000
H        0.71220000      -1.37490000      -1.52330000
H        1.84040000       0.00790000      -1.42840000
H        2.01910000      -2.25930000       0.57380000
H        2.54100000      -0.49930000       2.32420000
H        2.48850000       0.79380000       1.02440000
H       -1.20260000      -1.02560000       2.29920000
