17
Properties=species:S:1:pos:R:3 gdb_98996=T pbc="F F F"
C       -0.52990000       1.25270000      -0.67440000
N       -1.03930000      -0.08500000      -0.44530000
C       -1.02290000      -0.64660000       0.78020000
O       -0.60700000      -0.15020000       1.80770000
N       -1.56130000      -1.97100000       0.83960000
C       -2.08680000      -2.75240000      -0.14450000
O       -2.18770000      -2.41900000      -1.31880000
C       -2.57290000      -4.13520000       0.29070000
O       -3.08720000      -4.83800000      -0.79790000
H        0.29890000       1.24000000      -1.39040000
H       -1.31530000       1.91110000      -1.06100000
H       -0.17210000       1.64630000       0.27710000
H       -1.42320000      -0.63690000      -1.20260000
H       -1.52200000      -2.33770000       1.78030000
H       -1.72750000      -4.67300000       0.74970000
H       -3.33380000      -4.00530000       1.07740000
H       -2.99310000      -4.23970000      -1.55650000
