13
Properties=species:S:1:pos:R:3 gdb_3126=T pbc="F F F"
O        0.01630000       0.08650000      -0.60110000
C        0.14870000       1.00070000       0.17240000
C        1.27400000       1.96260000       0.16250000
C        1.64250000       3.05220000       1.18450000
C        2.12720000       3.95470000      -0.00240000
C        1.74290000       2.82530000      -0.96660000
O        2.45000000       1.66050000      -0.59010000
H       -0.60350000       1.21190000       0.96640000
H        0.77140000       3.46830000       1.69610000
H        2.39260000       2.75430000       1.91970000
H        1.51720000       4.85200000      -0.12430000
H        3.18510000       4.22540000      -0.01890000
H        1.37180000       2.87550000      -1.98440000
