23
Properties=species:S:1:pos:R:3 gdb_80980=T pbc="F F F"
C       -0.11000000       1.52610000      -0.07000000
C        0.01080000       0.00790000       0.00260000
C        1.17670000      -0.59660000      -0.84310000
C        2.08030000      -0.44270000       0.41320000
C        0.76980000      -0.58730000       1.25220000
C        0.66590000       0.08360000       2.60990000
C        0.43910000      -2.07190000       1.28610000
C        0.50800000      -2.77960000       0.15850000
C        0.90830000      -2.08490000      -1.12380000
H        0.84700000       2.03390000       0.08740000
H       -0.48170000       1.82900000      -1.05560000
H       -0.81380000       1.90690000       0.67790000
H       -0.97190000      -0.44300000      -0.17350000
H        1.46770000      -0.06000000      -1.75070000
H        2.86260000      -1.18790000       0.57990000
H        2.51220000       0.55840000       0.48790000
H        0.90370000       1.15000000       2.55320000
H       -0.34420000      -0.01420000       3.02590000
H        1.36100000      -0.37400000       3.32400000
H        0.15510000      -2.52290000       2.23350000
H        0.28530000      -3.84250000       0.13220000
H        0.11610000      -2.19330000      -1.87870000
H        1.79980000      -2.56270000      -1.55520000
