20
Properties=species:S:1:pos:R:3 gdb_53015=T pbc="F F F"
C       -0.04420000       1.47730000      -0.12660000
C       -0.02410000       0.02360000      -0.06090000
C       -0.02220000      -1.18020000      -0.01080000
C        0.02820000      -2.61400000       0.06670000
C       -0.33250000      -3.46410000      -1.11120000
N       -1.25190000      -3.38260000       0.02510000
C       -1.10930000      -4.49430000       0.98290000
C        0.39170000      -4.66070000       1.31840000
C        0.96780000      -3.24840000       1.09640000
H        0.80290000       1.91120000       0.41630000
H        0.00950000       1.83230000      -1.16190000
H       -0.96170000       1.88220000       0.31520000
H       -0.69110000      -2.98160000      -2.01500000
H        0.23280000      -4.37870000      -1.27750000
H       -1.67740000      -4.22020000       1.87840000
H       -1.55970000      -5.40250000       0.56960000
H        0.54900000      -5.02090000       2.33790000
H        0.86680000      -5.38470000       0.65020000
H        2.00810000      -3.25820000       0.75910000
H        0.92680000      -2.65500000       2.01530000
