17
Properties=species:S:1:pos:R:3 gdb_71748=T pbc="F F F"
O       -0.07560000       1.36540000       0.09940000
C        0.03600000      -0.02020000       0.07690000
C        0.91320000      -0.72280000       1.10310000
C        0.58870000      -2.14670000       0.69590000
C        0.32330000      -2.18440000      -0.79760000
C       -0.83830000      -2.19430000       0.18590000
C       -1.33490000      -0.75520000      -0.05470000
O       -1.28210000      -0.58220000      -1.49960000
C        0.15230000      -0.74550000      -1.31740000
H        0.78870000       1.74490000      -0.09060000
H        1.97580000      -0.47620000       0.98490000
H        0.60990000      -0.48490000       2.12820000
H        1.02580000      -3.00030000       1.20000000
H        0.57860000      -3.02320000      -1.43020000
H       -1.49940000      -3.03830000       0.32380000
H       -2.25620000      -0.40150000       0.40500000
H        0.75180000      -0.38700000      -2.15410000
