18
Properties=species:S:1:pos:R:3 gdb_74834=T pbc="F F F"
C        0.12500000       1.49050000      -0.09410000
C        0.01270000       0.00040000       0.04300000
C       -1.09660000      -0.68880000      -0.24540000
C       -1.14290000      -2.16020000      -0.06560000
C       -0.71750000      -3.12290000      -1.14650000
N        0.13870000      -2.84620000      -0.00440000
C        1.31390000      -2.09830000      -0.16460000
O        2.25890000      -2.48770000      -0.80690000
C        1.24840000      -0.74560000       0.53320000
H        0.90800000       1.75990000      -0.81390000
H       -0.81530000       1.93930000      -0.42470000
H        0.40950000       1.95020000       0.86100000
H       -2.00110000      -0.18390000      -0.57360000
H       -1.88470000      -2.53050000       0.64360000
H       -1.15550000      -4.11660000      -1.18490000
H       -0.40790000      -2.71100000      -2.10300000
H        2.16610000      -0.20050000       0.30250000
H        1.20500000      -0.87770000       1.62250000
