16
Properties=species:S:1:pos:R:3 gdb_44847=T pbc="F F F"
N       -0.06620000       1.25390000       0.02010000
C       -0.02590000      -0.00350000       0.00240000
O        1.09430000      -0.80410000       0.00500000
C        0.55940000      -2.15600000       0.02590000
O       -0.60740000      -2.05620000      -0.75660000
C       -1.19460000      -0.98340000       0.00700000
C       -1.22130000      -1.55820000       1.43310000
C       -1.30500000      -3.05700000       1.55440000
C        0.04560000      -2.39720000       1.44440000
H        0.87500000       1.65030000       0.04640000
H        1.28530000      -2.83510000      -0.41620000
H       -2.11980000      -0.63430000      -0.44240000
H       -1.48930000      -0.90630000       2.25370000
H       -1.57100000      -3.43920000       2.53360000
H       -1.67740000      -3.63430000       0.71680000
H        0.74880000      -2.38620000       2.26650000
