16
Properties=species:S:1:pos:R:3 gdb_12913=T pbc="F F F"
C       -0.01680000       1.56840000       0.01010000
C       -0.01290000       0.06930000       0.04870000
C       -1.24800000      -0.83140000       0.09830000
O       -0.55020000      -1.79970000       0.93080000
C        0.58380000      -0.93510000       0.98830000
C        1.21260000      -0.76480000      -0.38160000
C        1.20280000      -1.83500000      -1.40660000
O        2.04720000      -1.94330000      -2.26530000
H        0.96520000       1.97200000       0.27360000
H       -0.26890000       1.93980000      -0.98950000
H       -0.74890000       1.97600000       0.71610000
H       -2.07220000      -0.37530000       0.65900000
H       -1.62930000      -1.26530000      -0.83160000
H        1.13010000      -0.86260000       1.92200000
H        2.12250000      -0.17060000      -0.38550000
H        0.36760000      -2.55980000      -1.32900000
