25
Properties=species:S:1:pos:R:3 gdb_58803=T pbc="F F F"
C       -0.21880000       1.56030000      -0.04760000
C       -0.01350000       0.03670000       0.00430000
C       -1.34200000      -0.68790000       0.25680000
C        0.70960000      -0.44310000      -1.23510000
C        0.05440000      -0.80000000      -2.54130000
C        0.88730000      -1.84240000      -1.83650000
C        2.38780000      -1.59580000      -2.05350000
C        2.98000000      -1.80150000      -3.44260000
C        2.19470000      -0.13710000      -1.51000000
H        0.73040000       2.08700000      -0.18950000
H       -0.87950000       1.83360000      -0.87810000
H       -0.67150000       1.92890000       0.87900000
H        0.64530000      -0.17870000       0.85920000
H       -2.08110000      -0.45150000      -0.51640000
H       -1.21020000      -1.77440000       0.27950000
H       -1.76730000      -0.38250000       1.21820000
H       -1.01520000      -0.97890000      -2.50580000
H        0.38920000      -0.34750000      -3.47230000
H        0.44850000      -2.78330000      -1.52160000
H        2.96610000      -2.17570000      -1.32670000
H        2.42470000      -1.24600000      -4.20540000
H        4.02180000      -1.46340000      -3.47990000
H        2.96300000      -2.86020000      -3.72510000
H        2.38890000       0.67250000      -2.22280000
H        2.77420000       0.05570000      -0.60270000
