17
Properties=species:S:1:pos:R:3 gdb_50018=T pbc="F F F"
O       -0.04030000       0.06220000      -0.51730000
C        0.02670000       1.18450000      -0.08320000
C        1.27180000       1.98370000      -0.00290000
C        1.15890000       3.48830000      -0.07470000
C        1.48580000       2.85510000       1.23900000
C        0.74220000       2.88080000       2.58990000
C        2.11820000       3.01980000       3.32190000
C        2.81360000       2.96490000       1.94740000
O        3.94940000       2.99500000       1.57000000
H       -0.87950000       1.71360000       0.29570000
H        2.15990000       1.51170000      -0.40980000
H        1.95270000       4.02100000      -0.58670000
H        0.16430000       3.90960000      -0.19000000
H        0.07240000       3.73280000       2.72140000
H        0.20140000       1.96510000       2.83540000
H        2.27750000       3.96100000       3.85510000
H        2.38990000       2.19500000       3.98610000
