22
Properties=species:S:1:pos:R:3 gdb_113552=T pbc="F F F"
C       -0.21450000       1.50840000      -0.17500000
C       -0.08600000       0.06560000       0.30620000
N       -1.36230000      -0.63410000       0.17340000
C       -1.61070000      -1.32890000      -1.09880000
C       -1.38400000      -2.09340000       0.14650000
C       -0.26400000      -3.02160000       0.63190000
C       -1.16150000      -3.36320000       1.85980000
C       -2.38880000      -2.76380000       1.09860000
O       -3.26620000      -1.90350000       1.76060000
H        0.73070000       2.04390000      -0.04380000
H       -0.48010000       1.54390000      -1.23640000
H       -0.99330000       2.03320000       0.38530000
H        0.71940000      -0.44250000      -0.24930000
H        0.19670000       0.04850000       1.36590000
H       -2.61160000      -1.22740000      -1.51130000
H       -0.80790000      -1.31500000      -1.83590000
H       -0.11840000      -3.87380000      -0.03820000
H        0.71070000      -2.57230000       0.83420000
H       -1.22130000      -4.40900000       2.16720000
H       -0.91800000      -2.74470000       2.72760000
H       -2.96840000      -3.55300000       0.60330000
H       -2.91830000      -1.01380000       1.58440000
