18
Properties=species:S:1:pos:R:3 gdb_97367=T pbc="F F F"
N        0.34730000       0.82920000      -0.61940000
C       -0.02250000      -0.34050000      -0.01260000
N       -1.22310000      -0.59460000       0.32510000
H       -3.41710000      -0.98590000      -0.32600000
C       -1.47270000      -1.85040000       1.00530000
C       -2.44670000      -2.69560000       0.16550000
N       -3.65910000      -1.97270000      -0.25180000
C       -1.72860000      -3.24280000      -1.08960000
O       -0.60170000      -3.66730000      -1.07130000
O       -2.48840000      -3.22010000      -2.18780000
H        1.19830000       0.82510000      -1.15720000
H       -0.40300000       1.38780000      -0.99860000
H        0.81910000      -1.01280000       0.19660000
H       -0.56300000      -2.44190000       1.17940000
H       -1.94020000      -1.64610000       1.97790000
H       -2.74350000      -3.57810000       0.74470000
H       -3.32260000      -2.78380000      -1.89240000
H       -4.39610000      -2.05940000       0.43830000
