22
Properties=species:S:1:pos:R:3 gdb_115940=T pbc="F F F"
O       -0.01910000       1.44170000       0.04810000
C        0.03410000       0.02250000       0.02060000
C       -1.39320000      -0.51130000      -0.03410000
C       -2.13560000      -0.07940000      -1.30350000
C       -3.60800000      -0.50550000      -1.21850000
N       -3.86140000      -1.89760000      -0.83740000
C       -3.21080000      -2.96370000      -1.58540000
C       -2.78610000      -2.65890000      -0.18690000
C       -1.40890000      -2.04530000       0.08130000
H        0.88110000       1.77850000       0.03440000
H        0.59460000      -0.33770000      -0.85880000
H        0.54180000      -0.37200000       0.91610000
H       -1.92720000      -0.08700000       0.82820000
H       -2.07830000       1.00610000      -1.42210000
H       -1.64640000      -0.52040000      -2.18360000
H       -4.10380000       0.11870000      -0.46350000
H       -4.12350000      -0.32190000      -2.16790000
H       -3.83430000      -3.82660000      -1.80830000
H       -2.50790000      -2.70330000      -2.37600000
H       -3.15260000      -3.31060000       0.60360000
H       -0.67590000      -2.46130000      -0.62320000
H       -1.07500000      -2.34500000       1.08030000
