19
Properties=species:S:1:pos:R:3 gdb_118028=T pbc="F F F"
O       -0.07530000       1.47650000       0.01230000
C        0.03930000       0.06100000      -0.00000000
C       -1.37040000      -0.51600000      -0.01960000
C       -1.38460000      -2.04360000       0.01620000
O       -0.78330000      -2.56450000       1.19240000
C       -2.82630000      -2.59720000      -0.15320000
O       -3.43480000      -2.11040000      -1.34620000
C       -2.84880000      -4.05900000      -0.09620000
C       -2.86590000      -5.26050000      -0.12520000
H        0.81020000       1.84760000       0.06380000
H        0.59230000      -0.28750000      -0.88830000
H        0.57760000      -0.30930000       0.88410000
H       -1.92390000      -0.12530000       0.84670000
H       -1.89970000      -0.16990000      -0.91160000
H       -0.77980000      -2.44250000      -0.80850000
H       -1.24310000      -2.18810000       1.95190000
H       -3.43700000      -2.19260000       0.66670000
H       -3.14570000      -2.67810000      -2.06910000
H       -2.88280000      -6.32250000      -0.12780000
