22
Properties=species:S:1:pos:R:3 gdb_57433=T pbc="F F F"
C       -0.03550000       1.55660000       0.40030000
C       -0.11160000       0.04150000       0.12690000
C        0.43250000      -0.74720000       1.32740000
C       -1.57870000      -0.34570000      -0.13100000
N        0.62340000      -0.43750000      -1.06950000
C        0.97260000       0.41250000      -2.18340000
C        2.04800000      -0.21620000      -1.33890000
C        2.93010000       0.59760000      -0.54210000
C        3.74000000       1.21310000       0.10190000
H        0.99170000       1.90190000       0.52970000
H       -0.49930000       2.13340000      -0.40640000
H       -0.58580000       1.78650000       1.31820000
H       -0.17060000      -0.54950000       2.21890000
H        0.40120000      -1.82070000       1.11990000
H        1.46670000      -0.46810000       1.54610000
H       -1.96310000       0.16200000      -1.02180000
H       -1.66880000      -1.42330000      -0.29010000
H       -2.20820000      -0.06070000       0.71830000
H        0.76950000       0.01880000      -3.17710000
H        0.86450000       1.49040000      -2.08760000
H        2.53890000      -1.10720000      -1.72800000
H        4.43950000       1.77000000       0.67500000
