23
Properties=species:S:1:pos:R:3 gdb_60589=T pbc="F F F"
C        0.11520000       1.82200000      -0.41180000
C       -0.11030000       0.32010000      -0.18130000
C       -1.59100000       0.00240000      -0.22320000
C       -2.23600000      -0.94040000       0.69900000
O       -2.38220000       0.47020000       0.87310000
C        0.65320000      -0.53100000      -1.19570000
C        2.20890000      -0.48710000      -1.20410000
C        2.21090000      -2.00990000      -1.50640000
C        0.74550000      -2.07230000      -0.99930000
H        1.17630000       2.07770000      -0.33520000
H       -0.22960000       2.12240000      -1.40860000
H       -0.43500000       2.41070000       0.32740000
H        0.24990000       0.06600000       0.82550000
H       -2.06440000       0.15440000      -1.19710000
H       -3.13780000      -1.47140000       0.39640000
H       -1.63720000      -1.44320000       1.45770000
H        0.27880000      -0.31310000      -2.20480000
H        2.70100000       0.17900000      -1.91690000
H        2.60190000      -0.27570000      -0.20360000
H        2.27580000      -2.20810000      -2.58010000
H        2.95280000      -2.62830000      -0.99600000
H        0.69980000      -2.33940000       0.06190000
H        0.03900000      -2.70300000      -1.54440000
