17
Properties=species:S:1:pos:R:3 gdb_80109=T pbc="F F F"
C       -0.21980000       1.46390000      -0.02900000
N        0.07410000       0.04070000       0.04340000
C        1.40510000      -0.51470000      -0.21120000
C        2.59590000       0.38060000      -0.12270000
C        2.72840000       0.90590000       1.09780000
C        1.68170000       0.39070000       2.05850000
C        0.79840000      -0.51390000       1.18340000
C        0.21380000      -1.68260000       1.79390000
N       -0.23490000      -2.61470000       2.31060000
H        0.60900000       2.12550000       0.25450000
H       -0.51090000       1.69780000      -1.05720000
H       -1.07510000       1.66990000       0.62090000
H        1.41600000      -1.39630000      -0.84500000
H        3.23420000       0.58470000      -0.97370000
H        3.47380000       1.63520000       1.39410000
H        2.12580000      -0.18970000       2.87500000
H        1.10670000       1.19840000       2.52830000
