19
Properties=species:S:1:pos:R:3 gdb_58408=T pbc="F F F"
C       -0.09860000       1.59740000      -0.06200000
C       -0.01100000       0.06670000       0.01340000
C       -1.41230000      -0.54960000       0.14670000
C        0.75240000      -0.48470000      -1.21140000
O        2.02320000       0.15280000      -1.25210000
C        2.75150000       0.04380000      -2.38760000
O        3.84970000       0.49720000      -2.48270000
C        0.92770000      -2.00200000      -1.20190000
O        1.98650000      -2.54860000      -1.36010000
H        0.89090000       2.04980000      -0.14280000
H       -0.69190000       1.91170000      -0.92930000
H       -0.58710000       1.99020000       0.83470000
H        0.57920000      -0.20140000       0.89900000
H       -2.00510000      -0.39090000      -0.76200000
H       -1.39120000      -1.62260000       0.35410000
H       -1.94670000      -0.07090000       0.97230000
H        0.17110000      -0.24200000      -2.11890000
H        2.20980000      -0.46880000      -3.20340000
H       -0.00950000      -2.58050000      -1.06910000
