18
Properties=species:S:1:pos:R:3 gdb_75278=T pbc="F F F"
C       -0.35920000       1.35340000       0.11260000
C       -0.04300000      -0.10480000       0.00740000
C       -0.09540000      -0.88630000      -1.07650000
C        0.27660000      -2.32890000      -0.82160000
C        0.48890000      -2.36720000       0.70610000
C        0.36200000      -0.91190000       1.20990000
O       -0.79360000      -1.30400000       2.05320000
C       -0.73800000      -2.59610000       1.57080000
N       -1.47560000      -3.58410000       1.79960000
H        0.50370000       1.92130000       0.48270000
H       -0.65480000       1.77330000      -0.85220000
H       -1.17560000       1.52190000       0.82530000
H       -0.38290000      -0.53710000      -2.06370000
H       -0.50450000      -3.02710000      -1.14240000
H        1.18840000      -2.61220000      -1.36200000
H        1.36040000      -2.93800000       1.02570000
H        1.13770000      -0.47350000       1.84250000
H       -2.22900000      -3.34240000       2.44600000
