17
Properties=species:S:1:pos:R:3 gdb_72367=T pbc="F F F"
C        0.19090000       1.61010000      -0.01100000
C       -0.00560000       0.10880000       0.08490000
N       -1.41110000      -0.29940000       0.15260000
C       -1.50190000      -1.31720000       1.08980000
N       -0.47160000      -1.57420000       1.80190000
C        0.61040000      -0.73570000       1.27250000
C        1.54550000      -1.49560000       0.28670000
C        0.85100000      -0.76690000      -0.87750000
O        0.90220000      -0.85440000      -2.06980000
H        1.25330000       1.86900000       0.04540000
H       -0.19260000       1.99250000      -0.96270000
H       -0.33600000       2.11440000       0.80430000
H       -1.96580000      -0.33740000      -0.69030000
H       -2.45750000      -1.81800000       1.22070000
H        1.11510000      -0.18730000       2.07010000
H        2.60730000      -1.23840000       0.36670000
H        1.44400000      -2.58440000       0.28760000
