21
Properties=species:S:1:pos:R:3 gdb_94219=T pbc="F F F"
C       -0.45000000       1.38820000      -0.08440000
C        0.07580000      -0.03910000      -0.06170000
C        1.41760000      -0.34180000      -0.75920000
O        1.94260000      -0.98810000       0.41530000
C        0.78410000      -0.61180000       1.20860000
C        1.17340000       0.37930000       2.29640000
C        0.08840000      -1.86390000       1.78130000
C        0.85460000      -2.56600000       2.80310000
C        1.48750000      -3.14150000       3.64740000
H        0.31650000       2.11230000       0.20700000
H       -0.78690000       1.65270000      -1.09270000
H       -1.30480000       1.51240000       0.58900000
H       -0.71220000      -0.72090000      -0.39740000
H        1.38820000      -1.01530000      -1.62370000
H        1.99840000       0.55170000      -1.02860000
H        1.70020000       1.23740000       1.87270000
H        0.29160000       0.74340000       2.83480000
H        1.83630000      -0.10860000       3.01530000
H       -0.88480000      -1.56010000       2.19150000
H       -0.11950000      -2.54690000       0.94930000
H        2.04890000      -3.65560000       4.38760000
