19
Properties=species:S:1:pos:R:3 gdb_92930=T pbc="F F F"
O       -0.04600000       1.50210000       0.14170000
C        0.05730000       0.08800000       0.06070000
C        0.73550000      -0.51670000       1.29590000
C        0.54560000      -2.00880000       1.36500000
C       -0.40480000      -2.66030000       0.69460000
C       -1.40480000      -1.98650000      -0.21940000
C       -1.36470000      -0.45090000      -0.08940000
C       -1.12090000      -2.44640000      -1.64730000
O       -1.70990000      -3.33340000      -2.20700000
H        0.84220000       1.86370000       0.22680000
H        0.64400000      -0.19750000      -0.82830000
H        1.80670000      -0.27370000       1.29590000
H        0.31650000      -0.03720000       2.19200000
H        1.21810000      -2.56520000       2.01330000
H       -0.49180000      -3.74020000       0.77890000
H       -2.40820000      -2.36070000       0.01420000
H       -1.93810000      -0.15050000       0.79460000
H       -1.84210000       0.02690000      -0.95170000
H       -0.28610000      -1.90440000      -2.14940000
