18
Properties=species:S:1:pos:R:3 gdb_53276=T pbc="F F F"
C        0.24260000       1.39230000      -0.88850000
C        0.11760000       0.00740000      -0.45940000
C        0.00800000      -1.13670000      -0.09790000
C       -0.05060000      -2.51700000       0.29690000
N       -0.74620000      -2.87640000       1.54200000
C       -1.30350000      -3.36810000       0.27820000
C       -2.64930000      -2.86650000      -0.17910000
C       -3.24380000      -1.66710000       0.52030000
O       -3.21110000      -3.45360000      -1.07790000
H        1.26610000       1.61430000      -1.20980000
H       -0.42500000       1.61100000      -1.72910000
H       -0.00720000       2.08230000      -0.07520000
H        0.85120000      -3.07940000       0.05860000
H       -0.24590000      -3.61790000       2.02490000
H       -1.14040000      -4.40450000      -0.00960000
H       -2.58910000      -0.79820000       0.40070000
H       -4.22910000      -1.45920000       0.10200000
H       -3.31090000      -1.85620000       1.59590000
