16
Properties=species:S:1:pos:R:3 gdb_61704=T pbc="F F F"
C       -0.11290000       1.50400000      -0.13880000
C        0.08960000      -0.00750000      -0.01070000
O        0.80550000      -0.36160000       1.19180000
C        0.16900000      -0.16610000       2.37240000
N        0.80070000      -0.33570000       3.44880000
C       -1.25310000      -0.78410000      -0.04150000
O       -2.30730000      -0.29390000      -0.33570000
C        0.87100000      -0.54590000      -1.12220000
C        1.44520000      -1.00700000      -2.07110000
H        0.85660000       2.00480000      -0.11790000
H       -0.61920000       1.73050000      -1.07840000
H       -0.73280000       1.87910000       0.67900000
H       -0.88600000       0.12120000       2.27570000
H        0.18690000      -0.17710000       4.24530000
H       -1.13600000      -1.85510000       0.22730000
H        1.97500000      -1.40460000      -2.90210000
