16
Properties=species:S:1:pos:R:3 gdb_129880=T pbc="F F F"
N       -0.20290000       1.40680000      -0.17160000
C       -0.06590000       0.01770000      -0.03290000
C       -1.05190000      -0.95090000      -0.07390000
N       -0.44410000      -2.14050000       0.22250000
C       -1.03300000      -3.45470000       0.18900000
C       -1.07470000      -4.04360000      -1.22060000
O       -1.86950000      -4.87430000      -1.56780000
N        0.87450000      -2.00390000       0.42900000
C        1.11090000      -0.70040000       0.28490000
H        0.64300000       1.84680000      -0.50950000
H       -0.97420000       1.67250000      -0.76950000
H       -2.11150000      -0.88790000      -0.26450000
H       -0.41170000      -4.10740000       0.81120000
H       -2.04380000      -3.44090000       0.60570000
H       -0.28900000      -3.64440000      -1.89960000
H        2.11030000      -0.31380000       0.42350000
