18
Properties=species:S:1:pos:R:3 gdb_53397=T pbc="F F F"
C        0.28770000       1.55960000      -0.42290000
C        0.18010000       0.12240000      -0.22320000
C        0.08450000      -1.06700000      -0.05870000
C       -0.06470000      -2.48730000       0.15900000
C       -0.05430000      -3.05510000       1.61370000
C       -1.16720000      -4.05300000       1.20970000
C       -1.48070000      -3.16990000      -0.04380000
C       -2.61230000      -2.27640000       0.14110000
N       -3.52070000      -1.57800000       0.29660000
H        0.81490000       2.03720000       0.41020000
H        0.83480000       1.79570000      -1.34220000
H       -0.70360000       2.01960000      -0.49600000
H        0.64860000      -3.04680000      -0.45580000
H        0.89180000      -3.46220000       1.97390000
H       -0.41620000      -2.30760000       2.32250000
H       -0.77110000      -5.02360000       0.90260000
H       -1.98710000      -4.20790000       1.91070000
H       -1.60300000      -3.69980000      -0.99120000
