22
Properties=species:S:1:pos:R:3 gdb_19286=T pbc="F F F"
C       -1.41160000       0.87000000       0.65550000
C        0.01410000       0.56130000       0.18490000
C        0.81050000      -0.23000000       1.22040000
C        0.40780000      -1.68560000       1.51300000
C        0.67280000      -2.57490000       0.32950000
C        1.82620000      -2.16660000       1.20220000
C        2.27870000      -0.72890000       0.90100000
C        2.92340000      -0.43130000      -0.44900000
H       -1.40470000       1.45650000       1.58140000
H       -1.96670000       1.44010000      -0.09590000
H       -1.96880000      -0.05220000       0.85260000
H       -0.03050000       0.01300000      -0.76340000
H        0.54040000       1.50000000      -0.03250000
H        0.82810000       0.34460000       2.15330000
H       -0.24610000      -2.00070000       2.31760000
H        0.35030000      -3.60450000       0.44900000
H        0.57620000      -2.20520000      -0.68760000
H        2.41940000      -2.90360000       1.73130000
H        2.94740000      -0.37650000       1.69280000
H        2.31780000      -0.78980000      -1.28660000
H        3.07830000       0.64440000      -0.58780000
H        3.90270000      -0.91780000      -0.52070000
