16
Properties=species:S:1:pos:R:3 gdb_21200=T pbc="F F F"
C       -0.01110000       1.36690000       0.14640000
N       -0.13380000       0.01060000      -0.36070000
C       -1.29230000      -0.69280000      -0.13600000
N       -1.33740000      -2.02310000      -0.18930000
N       -2.66500000      -2.26800000       0.02350000
C       -3.16640000      -3.62060000       0.04130000
C       -3.31610000      -1.10860000       0.19730000
N       -2.48880000      -0.08090000       0.10770000
H        0.90320000       1.81180000      -0.25410000
H       -0.86410000       1.95570000      -0.19510000
H        0.01970000       1.42520000       1.24490000
H        0.69210000      -0.56320000      -0.28100000
H       -4.24020000      -3.59530000       0.23690000
H       -2.98540000      -4.10580000      -0.92200000
H       -2.66940000      -4.19920000       0.82500000
H       -4.37840000      -1.05590000       0.38580000
