20
Properties=species:S:1:pos:R:3 gdb_115098=T pbc="F F F"
C       -0.12660000       1.58490000      -0.06870000
C       -0.01500000       0.05350000      -0.01910000
C        0.82130000      -0.49770000      -1.19070000
N        2.26450000      -0.33470000      -1.01920000
C        2.70820000      -0.13820000       0.14590000
O        2.02990000      -0.08530000       1.32120000
C        0.63610000      -0.47580000       1.26510000
C        0.03480000      -0.01240000       2.58500000
O        0.66040000      -0.63820000       3.68750000
H        0.85060000       2.06390000       0.04250000
H       -0.54300000       1.89950000      -1.03050000
H       -0.78190000       1.97250000       0.71630000
H       -1.02370000      -0.37450000      -0.07710000
H        0.61270000      -1.56500000      -1.34080000
H        0.53870000       0.00150000      -2.12450000
H        3.76920000       0.03170000       0.32180000
H        0.61390000      -1.57410000       1.25400000
H        0.09770000       1.08300000       2.65710000
H       -1.02320000      -0.29370000       2.61720000
H        1.60350000      -0.45640000       3.60510000
