14
Properties=species:S:1:pos:R:3 gdb_24272=T pbc="F F F"
C       -0.01770000       1.46200000       0.11910000
C        1.28590000       0.72600000       0.04270000
O        2.01040000       0.41620000       1.23850000
C        1.17970000      -0.42620000       1.90910000
C        0.05990000      -0.76980000       1.24610000
O       -0.66490000      -1.58590000       2.06720000
C        0.12040000      -1.67450000       3.18140000
N        1.23180000      -0.99090000       3.15180000
C       -0.05040000      -0.05810000      -0.03150000
H       -0.33500000       1.88610000       1.06490000
H       -0.26940000       2.05060000      -0.75690000
H        1.94960000       0.85660000      -0.80160000
H       -0.24150000      -2.31430000       3.96970000
H       -0.41160000      -0.51970000      -0.94300000
