18
Properties=species:S:1:pos:R:3 gdb_87054=T pbc="F F F"
C        0.08650000       1.33400000      -0.24970000
C        0.21270000      -0.12140000       0.10670000
O        1.53630000      -0.64370000       0.28010000
C        0.67620000      -0.62210000       1.42430000
C        1.04500000       0.35300000       2.44130000
N        1.30850000       1.11200000       3.27230000
C        0.24850000      -1.95340000       1.97500000
C        0.34260000      -3.18600000       1.11570000
C        1.29260000      -3.00140000       2.27110000
H        0.73580000       1.95360000       0.37220000
H        0.35860000       1.48590000      -1.29900000
H       -0.94850000       1.66540000      -0.11790000
H       -0.44970000      -0.80340000      -0.42800000
H       -0.58690000      -1.88360000       2.66500000
H       -0.44930000      -3.92090000       1.20180000
H        0.75460000      -3.06770000       0.12040000
H        2.32170000      -2.75980000       2.02990000
H        1.16430000      -3.60810000       3.15960000
