18
Properties=species:S:1:pos:R:3 gdb_38163=T pbc="F F F"
C       -0.00560000       1.52120000      -0.03930000
N        1.48550000       1.33290000       0.04770000
C        1.23560000       0.03630000       0.79400000
C       -0.08300000       0.00840000       0.00470000
O       -1.21130000      -0.79680000      -0.26990000
C       -0.09470000      -0.79500000      -1.20700000
C        0.08690000      -0.06420000      -2.48530000
C        1.13830000       0.76730000      -2.50960000
C        2.04140000       1.17210000      -1.33000000
H       -0.37280000       1.99230000       0.87810000
H       -0.37360000       2.05880000      -0.91210000
H        1.96010000      -0.76280000       0.61930000
H        1.16150000       0.25690000       1.86280000
H        0.43330000      -1.75080000      -1.16560000
H       -0.49480000      -0.27850000      -3.37710000
H        1.41260000       1.24220000      -3.45030000
H        2.46900000       2.14740000      -1.59150000
H        2.89560000       0.48470000      -1.26860000
