16
Properties=species:S:1:pos:R:3 gdb_126893=T pbc="F F F"
C       -0.34370000       1.32910000       0.08950000
C        0.18090000      -0.10640000      -0.04730000
N        0.81210000      -0.56320000       1.18630000
C        0.10270000      -1.09020000       2.09530000
O       -1.26330000      -1.25400000       1.98070000
N       -2.05330000      -1.94610000       3.02020000
N       -1.48120000      -2.33260000       4.02870000
C       -0.10430000      -2.15520000       4.25140000
C        0.67720000      -1.56610000       3.33960000
H        0.45710000       2.00310000       0.40700000
H       -0.73460000       1.68330000      -0.86930000
H       -1.14950000       1.37840000       0.82740000
H       -0.63970000      -0.76800000      -0.35320000
H        0.94550000      -0.13860000      -0.83020000
H        0.24200000      -2.54110000       5.20020000
H        1.74230000      -1.42740000       3.47640000
