25
Properties=species:S:1:pos:R:3 gdb_86551=T pbc="F F F"
C       -0.89300000       0.91300000      -0.15300000
C        0.26510000      -0.05010000       0.05700000
C        1.54580000       0.11910000      -0.81070000
C        2.41640000      -0.15540000       0.45340000
C        1.15170000       0.11100000       1.32570000
C        2.95950000      -1.56900000       0.54820000
C        4.18170000      -1.96940000      -0.33050000
C        4.73020000      -2.78620000       0.87020000
C        3.78830000      -1.97750000       1.80220000
H       -0.55490000       1.95390000      -0.08670000
H       -1.35360000       0.77560000      -1.13810000
H       -1.67460000       0.76900000       0.60190000
H       -0.10100000      -1.08030000      -0.01450000
H        1.67430000      -0.55680000      -1.66150000
H        1.65500000       1.14780000      -1.16910000
H        3.24020000       0.55050000       0.60800000
H        1.12460000       1.13690000       1.70700000
H        0.96920000      -0.57130000       2.16130000
H        2.14760000      -2.29170000       0.39570000
H        3.99060000      -2.49930000      -1.26710000
H        4.81150000      -1.09980000      -0.54740000
H        4.43640000      -3.83840000       0.81200000
H        5.80370000      -2.73930000       1.06840000
H        4.29810000      -1.11030000       2.23590000
H        3.27630000      -2.51390000       2.60500000
