16
Properties=species:S:1:pos:R:3 gdb_125766=T pbc="F F F"
C       -0.02020000       1.47430000       0.03490000
C       -0.01680000      -0.02480000       0.02990000
N       -0.06760000      -0.57530000      -1.13160000
O       -0.06820000      -1.98380000      -1.18980000
C       -0.02830000      -2.72030000      -0.06200000
N       -0.10840000      -4.05550000      -0.36550000
C        0.03400000      -2.17720000       1.17900000
C        0.04310000      -0.74860000       1.32350000
N        0.09650000      -0.03590000       2.39710000
H        0.87540000       1.84340000       0.54210000
H       -0.06360000       1.85740000      -0.98520000
H       -0.87330000       1.83900000       0.61380000
H        0.16440000      -4.29570000      -1.30710000
H        0.22680000      -4.69040000       0.34140000
H        0.06540000      -2.82120000       2.05000000
H        0.13430000      -0.64190000       3.22000000
