18
Properties=species:S:1:pos:R:3 gdb_125933=T pbc="F F F"
C       -0.76280000       1.22840000      -0.02510000
C        0.19920000       0.04390000       0.01400000
C        1.19280000      -0.00700000      -1.20280000
C        2.38630000      -0.66100000      -0.58360000
N        3.52210000      -1.22540000      -0.97720000
N        4.08760000      -1.54600000       0.19350000
N        3.41060000      -1.24020000       1.30760000
C        2.31810000      -0.67030000       0.81270000
C        1.06930000      -0.02390000       1.32120000
H       -0.21660000       2.17820000       0.00800000
H       -1.36490000       1.22160000      -0.93980000
H       -1.45120000       1.20980000       0.82640000
H       -0.38520000      -0.88350000      -0.02080000
H        0.76980000      -0.54840000      -2.05360000
H        1.43300000       1.00570000      -1.55340000
H        4.96970000      -2.02950000       0.23330000
H        1.27360000       0.98380000       1.70700000
H        0.56580000      -0.57630000       2.11940000
