23
Properties=species:S:1:pos:R:3 gdb_92263=T pbc="F F F"
C       -1.06670000       1.02680000       0.17870000
C       -0.07790000      -0.11550000      -0.00220000
C        1.15430000       0.12120000      -0.92040000
C        2.07030000      -0.59540000       0.11150000
C        3.24230000       0.22690000       0.68050000
C        2.61030000       0.94780000       1.84720000
C        1.36320000       0.54710000       2.11820000
C        0.51590000       1.00300000       3.26840000
C        0.90400000      -0.52470000       1.15390000
H       -0.56140000       1.93810000       0.51560000
H       -1.56610000       1.25730000      -0.76950000
H       -1.84560000       0.78030000       0.90920000
H       -0.61730000      -1.01140000      -0.32990000
H        1.10620000      -0.30920000      -1.92400000
H        1.40130000       1.18410000      -1.01530000
H        2.35770000      -1.60140000      -0.19940000
H        4.07810000      -0.40440000       1.01430000
H        3.66030000       0.91290000      -0.06900000
H        3.14830000       1.69180000       2.42780000
H        1.03520000       1.74680000       3.87950000
H       -0.43100000       1.44000000       2.93280000
H        0.25320000       0.15670000       3.91680000
H        0.61710000      -1.44080000       1.68460000
