15
Properties=species:S:1:pos:R:3 gdb_55583=T pbc="F F F"
C       -0.22660000       1.31930000       0.26570000
C        0.28070000      -0.01510000      -0.20530000
N        1.48680000      -0.39850000      -0.30680000
O       -0.78020000      -0.80420000      -0.52700000
C       -0.79330000      -2.13040000      -1.01290000
O       -1.85600000      -2.61790000      -1.22780000
N        0.45350000      -2.68750000      -1.17370000
C        0.70500000      -3.97840000      -1.63540000
O       -0.10580000      -4.79950000      -1.96130000
H        0.59820000       1.98050000       0.53510000
H       -0.82630000       1.78570000      -0.52120000
H       -0.88110000       1.18140000       1.13120000
H        2.13640000       0.32770000      -0.02130000
H        1.24090000      -2.07720000      -0.92510000
H        1.79830000      -4.15350000      -1.66300000
