14
Properties=species:S:1:pos:R:3 gdb_4477=T pbc="F F F"
C        0.17740000       1.50490000       0.08450000
C       -0.02500000       0.04130000       0.01470000
C       -1.07420000      -0.78730000      -0.18800000
O       -2.36330000      -0.44830000      -0.40370000
N       -0.68410000      -2.11810000      -0.16100000
C        0.59460000      -2.04450000       0.06610000
N        1.46940000      -3.08330000       0.26020000
O        1.08720000      -0.80320000       0.18470000
H        0.86750000       1.86910000      -0.68720000
H       -0.78620000       1.99810000      -0.06680000
H        0.57210000       1.82580000       1.05670000
H       -2.84950000      -1.27530000      -0.50000000
H        1.13410000      -3.95920000      -0.11180000
H        2.42690000      -2.87860000       0.01450000
