13
Properties=species:S:1:pos:R:3 gdb_28409=T pbc="F F F"
O        0.03410000       1.34550000      -0.05030000
C       -0.07620000       0.01370000       0.05240000
C       -1.19440000      -0.69900000      -0.16450000
N       -1.18310000      -2.07730000      -0.02600000
C       -0.09300000      -2.66180000       0.31130000
O       -0.03250000      -3.99530000       0.45800000
C        1.17780000      -1.96430000       0.56890000
N        2.25700000      -2.53000000       0.90150000
O        1.08980000      -0.58270000       0.41040000
H        0.94370000       1.59130000       0.15900000
H       -2.11920000      -0.21930000      -0.44900000
H       -0.92150000      -4.32470000       0.26220000
H        3.00760000      -1.85010000       1.02730000
