14
Properties=species:S:1:pos:R:3 gdb_48519=T pbc="F F F"
O        0.10450000      -0.05580000       0.06770000
C        0.04640000       1.14910000       0.08430000
C        1.23450000       2.02260000      -0.06790000
C        2.52950000       1.52350000      -0.68040000
C        3.41590000       2.70920000      -1.03220000
C        2.90440000       3.27170000       0.31470000
N        2.53630000       1.80570000       0.75920000
C        1.40690000       3.49760000       0.10250000
O        0.65870000       4.42250000       0.23240000
H       -0.91130000       1.69270000       0.21300000
H        2.54500000       0.50370000      -1.04980000
H        4.46940000       2.42580000      -0.97630000
H        3.22810000       3.28650000      -1.94120000
H        3.49630000       3.90790000       0.96690000
