21
Properties=species:S:1:pos:R:3 gdb_57430=T pbc="F F F"
C       -0.03040000       1.52910000       0.25200000
C       -0.02830000      -0.00060000       0.09490000
C        0.49640000      -0.67030000       1.37900000
C       -1.46950000      -0.47540000      -0.18730000
C        0.82810000      -0.48520000      -1.07720000
N        1.02300000       0.36520000      -2.24730000
C        2.20710000      -0.02840000      -1.45870000
C        2.95410000       1.00930000      -0.78900000
N        3.60600000       1.79890000      -0.25140000
H        0.94910000       1.91750000       0.53790000
H       -0.33030000       2.01860000      -0.67740000
H       -0.74030000       1.81160000       1.03620000
H       -0.14120000      -0.41540000       2.23160000
H        0.50560000      -1.76250000       1.28660000
H        1.51410000      -0.34010000       1.60940000
H       -1.85590000      -0.02920000      -1.10960000
H       -1.52150000      -1.56550000      -0.28840000
H       -2.13510000      -0.18490000       0.63170000
H        0.68760000      -1.55040000      -1.27020000
H        0.99510000      -0.16270000      -3.11510000
H        2.85870000      -0.79730000      -1.86840000
