15
Properties=species:S:1:pos:R:3 gdb_23735=T pbc="F F F"
C       -0.02770000       1.52840000       0.02880000
C       -0.00600000       0.02340000      -0.01430000
C       -0.03550000      -0.70230000      -1.20630000
C       -0.01420000      -2.09590000      -1.21190000
C        0.03760000      -2.79460000      -0.00930000
C        0.06800000      -2.09800000       1.19700000
C        0.04570000      -0.71320000       1.16900000
F        0.07500000      -0.04070000       2.33090000
H        0.86190000       1.92610000       0.52870000
H       -0.06830000       1.94600000      -0.98000000
H       -0.89340000       1.89910000       0.58810000
H       -0.07590000      -0.15890000      -2.14560000
H       -0.03800000      -2.63250000      -2.15390000
H        0.05450000      -3.87900000      -0.00340000
H        0.10840000      -2.60630000       2.15330000
