21
Properties=species:S:1:pos:R:3 gdb_94944=T pbc="F F F"
C       -0.55110000       1.23240000      -0.06530000
C        0.13060000      -0.13430000      -0.04070000
C        1.09550000      -0.39930000      -1.21530000
C        1.91690000      -1.63470000      -0.78650000
C        2.00660000      -1.49950000       0.75110000
C        1.00350000      -0.38970000       1.20870000
C        0.41090000      -1.34170000       2.29070000
C        1.19780000      -2.48490000       1.62040000
O        1.13750000      -3.67890000       1.67140000
H        0.19050000       2.03950000      -0.03920000
H       -1.15290000       1.36230000      -0.97080000
H       -1.21510000       1.36280000       0.79590000
H       -0.64860000      -0.91050000      -0.07430000
H        0.57390000      -0.54230000      -2.16700000
H        1.76050000       0.46600000      -1.33830000
H        1.39960000      -2.56240000      -1.05440000
H        2.89930000      -1.67020000      -1.26320000
H        3.02860000      -1.38680000       1.12440000
H        1.44050000       0.53680000       1.58790000
H        0.78930000      -1.14660000       3.30010000
H       -0.67560000      -1.45610000       2.34450000
