17
Properties=species:S:1:pos:R:3 gdb_43198=T pbc="F F F"
O        0.00890000       0.10590000      -0.67070000
C       -0.04460000       1.22590000      -0.24980000
C       -1.18180000       2.16800000       0.23110000
O       -1.38320000       2.02440000       1.65530000
C       -0.50790000       3.14340000       1.94490000
C       -0.10580000       3.28310000       0.46680000
C        0.98030000       2.30110000       0.00840000
C        2.39920000       2.10200000       0.48870000
C        2.15680000       2.56190000      -0.91260000
H       -2.11110000       2.25380000      -0.33720000
H       -1.07980000       3.99090000       2.34190000
H        0.28890000       2.87810000       2.64880000
H       -0.13520000       4.26600000       0.00040000
H        2.78140000       2.81930000       1.20740000
H        2.71590000       1.07680000       0.64830000
H        2.30020000       1.85380000      -1.72190000
H        2.36500000       3.59710000      -1.16120000
