16
Properties=species:S:1:pos:R:3 gdb_53884=T pbc="F F F"
N       -0.23480000       1.10440000      -0.65170000
C       -0.03480000      -0.04310000       0.01910000
O        1.00160000      -0.38020000       0.57100000
C       -1.26610000      -0.95000000       0.04620000
N       -2.34150000      -0.55430000      -0.52680000
N       -1.00260000      -2.10120000       0.72010000
C       -1.98950000      -3.11380000       0.97430000
C       -2.37100000      -3.90530000      -0.27990000
O       -3.45310000      -4.39590000      -0.45500000
H        0.50690000       1.77880000      -0.72510000
H       -1.14480000       1.26480000      -1.05660000
H       -3.10980000      -1.22090000      -0.45710000
H       -0.07380000      -2.14430000       1.11670000
H       -1.57490000      -3.83060000       1.69280000
H       -2.90690000      -2.70440000       1.41710000
H       -1.54420000      -4.00090000      -1.01970000
