14
Properties=species:S:1:pos:R:3 gdb_50805=T pbc="F F F"
N        0.99030000      -0.12090000      -0.36690000
C       -0.08920000       0.44120000      -0.00040000
N       -1.30080000      -0.19430000      -0.19630000
C       -2.52470000       0.31140000       0.15570000
N       -2.68670000       1.44810000       0.71460000
C       -3.64930000      -0.65050000      -0.20390000
O       -3.42460000      -1.71700000      -0.73480000
C       -4.98920000      -0.21320000       0.12580000
C       -6.11800000       0.11560000       0.38460000
H        1.78670000       0.47610000      -0.15220000
H       -0.20200000       1.41650000       0.47710000
H       -1.29390000      -1.10700000      -0.63390000
H       -3.67670000       1.61980000       0.88560000
H       -7.11770000       0.40050000       0.61080000
