19
Properties=species:S:1:pos:R:3 gdb_38970=T pbc="F F F"
C        0.52840000       1.51870000       0.48930000
O        1.25370000       2.02530000      -0.61960000
C        2.05880000       0.96020000      -1.11080000
C        1.27370000      -0.35000000      -0.84550000
C        2.01190000      -1.38640000      -0.01970000
O        2.40760000      -0.88650000       1.26820000
C        1.24070000      -1.71730000       1.18620000
C       -0.06100000      -0.94040000       1.19500000
C        0.08530000       0.10670000       0.06540000
H        1.16200000       1.46550000       1.38690000
H       -0.30350000       2.20220000       0.68110000
H        2.24220000       1.14830000      -2.17210000
H        3.02480000       0.93530000      -0.58610000
H        0.92330000      -0.80420000      -1.77700000
H        2.71170000      -2.07920000      -0.48160000
H        1.32040000      -2.67400000       1.69780000
H       -0.88950000      -1.62890000       0.99370000
H       -0.25510000      -0.47950000       2.17000000
H       -0.83530000       0.18600000      -0.51700000
