22
Properties=species:S:1:pos:R:3 gdb_96425=T pbc="F F F"
C       -0.17010000       1.53920000      -0.04170000
C        0.03830000       0.02610000       0.00900000
C        0.81540000      -0.47370000      -1.22570000
C        1.00820000      -1.99570000      -1.20370000
C        1.64890000      -2.44790000       0.11420000
C        0.85430000      -1.91370000       1.30980000
N        0.69820000      -0.46240000       1.22650000
C        1.16880000       0.31320000       2.24380000
O        1.72070000      -0.10480000       3.24500000
H        0.77840000       2.08460000      -0.06340000
H       -0.71220000       1.78170000      -0.96030000
H       -0.76310000       1.90570000       0.80060000
H       -0.95830000      -0.44530000      -0.01740000
H        0.27880000      -0.16960000      -2.13160000
H        1.79270000       0.02690000      -1.24490000
H        0.03020000      -2.48390000      -1.31720000
H        1.61530000      -2.31210000      -2.05840000
H        1.69800000      -3.54090000       0.16730000
H        2.67850000      -2.07470000       0.17690000
H       -0.14340000      -2.37770000       1.32950000
H        1.34770000      -2.12540000       2.25840000
H        1.00370000       1.38890000       2.07690000
