18
Properties=species:S:1:pos:R:3 gdb_41127=T pbc="F F F"
C       -0.01160000       1.54960000      -0.20090000
C        1.56530000       1.53060000       0.05460000
C        1.34160000       0.22120000       0.87450000
C        1.07100000       0.25340000       2.35170000
C        0.13550000      -0.68620000       2.52350000
C       -0.08060000      -1.20500000       1.12220000
N        1.36100000      -1.36630000       0.51490000
C        0.75530000      -0.96320000      -0.82330000
C        0.04640000       0.02710000       0.10970000
H       -0.52100000       2.12330000       0.57810000
H       -0.36860000       1.86800000      -1.18370000
H        2.14080000       1.42090000      -0.86510000
H        1.97320000       2.36880000       0.62490000
H        1.57040000       0.87860000       3.07920000
H       -0.34060000      -1.04700000       3.42340000
H       -0.74040000      -2.05440000       0.93350000
H        1.49010000      -0.58740000      -1.53960000
H        0.14960000      -1.75080000      -1.28090000
