19
Properties=species:S:1:pos:R:3 gdb_121696=T pbc="F F F"
C       -0.33690000       1.32780000      -0.04040000
C       -0.02960000      -0.16020000      -0.22420000
C        1.25610000      -0.38870000      -1.02760000
N        1.58510000      -1.79390000      -1.19910000
C        1.38140000      -2.45280000      -2.36010000
O        0.97710000      -1.98880000      -3.39970000
O        1.72690000      -3.78250000      -2.17480000
C        1.60390000      -4.61410000      -3.25270000
N        1.91000000      -5.82610000      -3.10450000
H        0.47390000       1.83960000       0.48980000
H       -0.46840000       1.82710000      -1.00630000
H       -1.25450000       1.47250000       0.53670000
H        0.06530000      -0.64550000       0.75600000
H       -0.85840000      -0.65870000      -0.73990000
H        1.15760000       0.03250000      -2.03100000
H        2.09990000       0.11440000      -0.53940000
H        1.88620000      -2.34200000      -0.40920000
H        1.24070000      -4.09730000      -4.14160000
H        1.77080000      -6.32230000      -3.98330000
