12
Properties=species:S:1:pos:R:3 gdb_1940=T pbc="F F F"
O        0.02860000      -0.05480000       0.05920000
C       -0.03170000       1.14260000       0.03740000
C       -1.15810000       2.20450000       0.05620000
C       -0.00420000       3.26370000      -0.03190000
N        0.93010000       2.12610000      -0.01070000
C        0.03750000       4.09470000      -1.22490000
C        0.07780000       4.79090000      -2.20370000
H       -1.81410000       2.17570000      -0.81360000
H       -1.74680000       2.23500000       0.97390000
H        0.07580000       3.88980000       0.86380000
H        1.92860000       2.08730000      -0.15510000
H        0.11080000       5.40260000      -3.07150000
