21
Properties=species:S:1:pos:R:3 gdb_114774=T pbc="F F F"
C       -0.16920000       1.61620000      -0.00900000
C       -0.03380000       0.09090000       0.01000000
C        0.76270000      -0.47580000      -1.17720000
C        2.29880000      -0.18530000      -1.12150000
C        2.90740000      -1.54500000      -0.80370000
O        2.36280000      -1.98470000       0.49050000
C        1.42980000      -2.80700000      -0.21290000
C        2.06140000      -2.60120000      -1.55150000
C        0.69560000      -2.00510000      -1.27270000
H        0.80710000       2.11130000       0.02920000
H       -0.67540000       1.95820000      -0.91930000
H       -0.75070000       1.97200000       0.84750000
H        0.44700000      -0.23620000       0.93810000
H       -1.03650000      -0.35620000       0.00340000
H        0.34560000      -0.05390000      -2.10030000
H        2.67540000       0.18060000      -2.08370000
H        2.56080000       0.55120000      -0.35620000
H        3.99620000      -1.61910000      -0.82050000
H        1.04160000      -3.68330000       0.29320000
H        2.35060000      -3.27320000      -2.34710000
H       -0.17760000      -2.47810000      -1.71050000
