14
Properties=species:S:1:pos:R:3 gdb_69888=T pbc="F F F"
O       -0.17500000       1.42120000      -0.02620000
C       -0.05080000       0.05660000      -0.01610000
C       -0.20490000      -0.85730000      -1.19590000
C       -1.16580000      -0.96270000      -0.02120000
C       -0.49800000      -1.67710000       1.18860000
O        0.83570000      -2.07490000       0.85510000
C        0.60350000      -0.70460000       1.21060000
C        1.33760000      -0.10400000       2.27440000
N        1.92890000       0.43000000       3.11290000
H        0.61840000       1.80380000      -0.42040000
H       -0.64270000      -0.36390000      -2.05790000
H        0.50350000      -1.64700000      -1.41160000
H       -2.23070000      -0.80250000      -0.11050000
H       -0.98640000      -2.19250000       2.00590000
