15
Properties=species:S:1:pos:R:3 gdb_34000=T pbc="F F F"
N       -0.06450000      -1.14580000      -0.35110000
C       -0.03140000      -0.00420000      -0.16400000
C        0.00070000       1.41290000       0.07180000
C        0.46880000       2.31380000      -1.07240000
C        1.35920000       2.09000000       0.10650000
O        1.58240000       3.12660000       1.02120000
C        0.52070000       3.56890000       1.74970000
N       -0.65990000       3.13180000       1.79980000
C       -1.05290000       1.95700000       1.04400000
H        0.73690000       1.85010000      -2.01390000
H       -0.02890000       3.27480000      -1.14820000
H        2.25030000       1.48480000      -0.00230000
H        0.82700000       4.42540000       2.34480000
H       -1.97970000       2.18690000       0.50500000
H       -1.30420000       1.16950000       1.76320000
