21
Properties=species:S:1:pos:R:3 gdb_94733=T pbc="F F F"
C        0.03190000       1.61490000       0.01800000
C        0.08680000       0.08960000      -0.02520000
C        0.97980000      -0.49240000      -1.13670000
O        1.29880000      -1.81940000      -0.72520000
C        1.42160000      -1.83560000       0.68890000
C        1.08340000      -3.21760000       1.19980000
C        2.69810000      -1.14230000       1.23040000
O        1.94740000       0.02630000       1.62860000
C        0.69340000      -0.56760000       1.21580000
H        1.01890000       2.02190000       0.25290000
H       -0.29400000       2.02540000      -0.94340000
H       -0.66820000       1.96500000       0.78290000
H       -0.92380000      -0.32200000      -0.14590000
H        0.48690000      -0.55540000      -2.11030000
H        1.89100000       0.11530000      -1.25070000
H        1.77080000      -3.95720000       0.77670000
H        1.15940000      -3.26070000       2.28990000
H        0.06690000      -3.49490000       0.90590000
H        3.17000000      -1.63350000       2.09030000
H        3.45900000      -0.91750000       0.47400000
H       -0.00100000      -0.66760000       2.05670000
