17
Properties=species:S:1:pos:R:3 gdb_22818=T pbc="F F F"
C        0.78050000       1.32710000      -0.45130000
C        0.00970000       0.17130000       0.19210000
O       -0.26630000      -0.83040000      -0.81250000
C        0.67060000      -1.79390000      -0.98320000
N        1.66350000      -2.09680000      -0.26300000
C        1.86990000      -1.38720000       0.99540000
C        0.75210000      -0.44430000       1.34970000
N        0.35550000      -0.12230000       2.51790000
O        1.14730000      -0.69970000       3.51930000
H        1.76790000       1.00220000      -0.79270000
H        0.22600000       1.70970000      -1.31220000
H        0.91100000       2.13480000       0.27410000
H       -0.96680000       0.51750000       0.53580000
H        0.45920000      -2.35310000      -1.89300000
H        1.99230000      -2.12140000       1.79690000
H        2.82560000      -0.84600000       0.94530000
H        0.69660000      -0.42080000       4.32350000
