20
Properties=species:S:1:pos:R:3 gdb_87905=T pbc="F F F"
C       -0.16280000       1.53540000       0.14910000
C       -0.10560000       0.02910000       0.22270000
N        1.14060000      -0.61390000      -0.23160000
C        0.75470000      -0.71730000       1.18430000
C        1.64300000      -0.04330000       2.23680000
C        1.46600000      -0.92150000       3.44910000
C        0.73410000      -2.00610000       3.19790000
C        0.26450000      -2.06550000       1.76630000
O       -1.12970000      -2.32070000       1.62130000
H        0.81290000       1.97740000       0.36530000
H       -0.45810000       1.85720000      -0.85530000
H       -0.89450000       1.93880000       0.85840000
H       -1.03220000      -0.47880000      -0.03750000
H        0.92700000      -1.48690000      -0.71060000
H        2.68680000      -0.01970000       1.89980000
H        1.36190000       0.99790000       2.43780000
H        1.91510000      -0.68100000       4.40700000
H        0.48670000      -2.79010000       3.90470000
H        0.73430000      -2.90220000       1.23010000
H       -1.59440000      -1.65630000       2.14330000
