18
Properties=species:S:1:pos:R:3 gdb_71056=T pbc="F F F"
C       -0.08600000       1.47760000      -0.06510000
C       -0.07180000      -0.01830000      -0.00580000
N       -0.32960000      -0.79020000      -1.35000000
C       -0.38420000      -1.88440000      -0.37260000
N        0.64100000      -2.63750000      -0.30120000
C        1.29390000      -2.23950000       0.96500000
C        0.67390000      -0.83580000       1.20650000
N        1.06150000      -0.00450000       2.30250000
C       -0.76700000      -0.99900000       0.85640000
H        0.66630000       1.83910000      -0.77320000
H       -1.06470000       1.84980000      -0.39090000
H        0.13190000       1.88040000       0.92640000
H       -1.27790000      -0.46990000      -1.58100000
H        1.11070000      -2.88960000       1.83640000
H        2.37420000      -2.23350000       0.77660000
H        0.85130000      -0.45120000       3.19060000
H        2.05970000       0.18160000       2.28330000
H       -1.66160000      -0.96770000       1.46750000
