15
Properties=species:S:1:pos:R:3 gdb_6313=T pbc="F F F"
N       -0.96310000       1.45810000      -0.59790000
C       -0.21730000       0.28370000      -0.11740000
C       -1.17350000      -0.84250000       0.33070000
C       -1.98890000      -0.57970000       1.60750000
N       -2.36600000       0.70930000       1.80980000
O       -2.26990000      -1.49320000       2.35790000
C        0.72970000      -0.22700000      -1.12950000
N        1.45180000      -0.59830000      -1.95240000
H       -0.32280000       2.21440000      -0.82080000
H       -1.45180000       1.22560000      -1.45880000
H        0.37220000       0.60610000       0.74870000
H       -1.87020000      -1.06530000      -0.48740000
H       -0.60700000      -1.75620000       0.51650000
H       -2.17120000       1.41450000       1.11060000
H       -2.94530000       0.91000000       2.60850000
