17
Properties=species:S:1:pos:R:3 gdb_40412=T pbc="F F F"
C       -0.04700000       1.44800000      -0.03620000
O        1.16150000       0.69080000      -0.13850000
C       -0.06830000      -0.02000000       0.02360000
C       -0.24500000      -0.76840000       1.30240000
C        0.27250000      -0.21880000       2.63040000
C        0.51840000      -1.46950000       3.44850000
C        0.26830000      -2.58570000       2.75940000
C       -0.23040000      -2.24380000       1.39520000
O       -1.47370000      -1.49790000       1.40440000
H       -0.15800000       2.02800000       0.87830000
H       -0.36270000       1.95090000      -0.94870000
H       -0.40550000      -0.56480000      -0.85830000
H        1.19120000       0.35890000       2.47280000
H       -0.45860000       0.44540000       3.10670000
H        0.83360000      -1.42730000       4.48490000
H        0.37440000      -3.60080000       3.12030000
H       -0.09990000      -2.90030000       0.53990000
