16
Properties=species:S:1:pos:R:3 gdb_55587=T pbc="F F F"
C        0.12730000       1.19670000       0.19980000
C       -0.51340000      -0.13080000       0.52520000
O       -0.18870000      -0.77790000       1.50110000
C       -1.60930000      -0.60560000      -0.42600000
C       -1.62040000      -2.09500000      -0.82090000
O       -1.89900000      -2.43470000      -1.94100000
N       -1.32870000      -2.95590000       0.23190000
C       -1.33850000      -4.34810000       0.21110000
O       -1.67270000      -5.05110000      -0.70170000
H        0.82440000       1.48260000       0.98770000
H        0.65780000       1.12130000      -0.75680000
H       -0.63910000       1.96960000       0.07330000
H       -2.56300000      -0.40390000       0.08310000
H       -1.61580000      -0.03370000      -1.35440000
H       -0.99170000      -2.50010000       1.07700000
H       -0.99390000      -4.74090000       1.18910000
