16
Properties=species:S:1:pos:R:3 gdb_45225=T pbc="F F F"
O       -0.08950000       0.02530000       0.28350000
C       -0.04190000       1.19390000       0.04390000
O       -1.16340000       1.97080000      -0.13380000
C       -0.78980000       3.34280000       0.00020000
C       -0.45930000       3.80750000       1.45580000
C        1.07030000       3.78210000       1.13860000
C        1.72160000       2.38740000       1.26150000
N        1.12380000       1.99040000      -0.06990000
C        0.71200000       3.39480000      -0.33080000
H       -1.50140000       3.94390000      -0.56330000
H       -0.81980000       4.82150000       1.64410000
H       -0.81730000       3.15360000       2.25540000
H        1.65730000       4.65470000       1.42080000
H        2.81260000       2.40540000       1.19870000
H        1.41780000       1.74360000       2.09170000
H        1.10130000       3.84160000      -1.24550000
