18
Properties=species:S:1:pos:R:3 gdb_46686=T pbc="F F F"
O       -0.03030000       0.16440000      -0.78480000
C       -0.05800000       1.15730000      -0.09540000
C       -1.31900000       1.62710000       0.62070000
C       -1.36670000       3.14740000       0.86500000
C       -0.06340000       3.67660000       1.45640000
C        1.17920000       2.87900000       1.39420000
C        1.16130000       2.03640000       0.10870000
C        1.09650000       3.41120000      -0.63420000
N        1.07260000       4.19180000       0.64530000
H       -2.19180000       1.26230000       0.07360000
H       -1.31880000       1.11300000       1.59280000
H       -1.60690000       3.67660000      -0.06420000
H       -2.18410000       3.37390000       1.55540000
H       -0.17440000       4.29330000       2.34330000
H        1.85890000       2.74120000       2.22850000
H        2.06650000       1.47110000      -0.10760000
H        2.02110000       3.62840000      -1.17070000
H        0.25110000       3.59260000      -1.30560000
