18
Properties=species:S:1:pos:R:3 gdb_59454=T pbc="F F F"
C       -0.02180000       1.53450000      -0.12590000
C        0.01830000       0.05780000       0.24960000
O        0.58130000      -0.14320000       1.55570000
C       -1.35250000      -0.58960000       0.16640000
O       -1.73470000      -1.12350000      -1.10300000
C       -1.54800000      -2.03500000      -0.01870000
C       -0.43530000      -3.06800000      -0.16220000
N        0.51010000      -3.01810000       0.81640000
O       -0.46890000      -3.90470000      -1.04040000
H        0.97730000       1.97260000      -0.06280000
H       -0.39760000       1.65590000      -1.14620000
H       -0.68730000       2.09140000       0.54560000
H        0.68850000      -0.47720000      -0.42880000
H        0.04610000       0.34220000       2.19380000
H       -2.14640000      -0.03550000       0.67710000
H       -2.47560000      -2.47610000       0.35040000
H        0.61290000      -2.19530000       1.39710000
H        1.28000000      -3.66550000       0.74420000
