16
Properties=species:S:1:pos:R:3 gdb_113129=T pbc="F F F"
C        0.23220000       1.38330000       0.20160000
N       -0.34190000       0.18060000      -0.39680000
C        0.49250000      -0.42920000      -1.37360000
C        1.62450000      -1.36580000      -1.07070000
C        0.31790000      -1.92980000      -1.67740000
C       -0.53510000      -2.68610000      -0.79620000
N       -1.21110000      -3.25400000      -0.04930000
C        0.32960000      -2.34840000      -3.05580000
N        0.36360000      -2.65960000      -4.16850000
H        1.20170000       1.21980000       0.70000000
H        0.37720000       2.14260000      -0.57430000
H       -0.47230000       1.78510000       0.93350000
H       -0.63170000      -0.48180000       0.31420000
H        0.61200000       0.17600000      -2.26910000
H        2.49140000      -1.38940000      -1.72070000
H        1.80270000      -1.64220000      -0.03770000
