23
Properties=species:S:1:pos:R:3 gdb_40776=T pbc="F F F"
C       -0.20940000       1.40510000      -0.18500000
C        1.23770000       1.10990000       0.12680000
C        0.24010000      -0.01760000       0.03750000
C       -0.18410000      -0.77420000       1.27710000
C       -1.59080000      -1.41960000       1.17220000
C       -1.58290000      -2.59470000       2.17570000
C       -0.13000000      -3.05120000       2.22530000
C        0.58450000      -3.23490000       0.90870000
C        0.72710000      -1.93660000       1.66920000
H       -0.80750000       1.87320000       0.59070000
H       -0.46740000       1.71830000      -1.19060000
H        1.96900000       1.21990000      -0.66650000
H        1.60850000       1.38190000       1.11000000
H        0.30910000      -0.63790000      -0.85350000
H       -0.18870000      -0.06640000       2.11930000
H       -2.39020000      -0.70080000       1.36920000
H       -1.75040000      -1.78840000       0.15300000
H       -1.88400000      -2.24740000       3.17170000
H       -2.27950000      -3.39090000       1.88970000
H        0.19890000      -3.64220000       3.07330000
H        1.44480000      -3.89530000       0.90130000
H        0.00790000      -3.26160000      -0.01070000
H        1.69600000      -1.70230000       2.09680000
