13
Properties=species:S:1:pos:R:3 gdb_57246=T pbc="F F F"
C       -0.41530000       1.63430000      -0.04380000
C        0.08040000       0.18950000      -0.00250000
O        0.95200000       0.05590000       1.10070000
C       -1.04710000      -0.76310000       0.08580000
N       -1.90350000      -1.53610000       0.15520000
C        0.86190000      -0.14550000      -1.31000000
O        0.78260000       0.47650000      -2.33030000
C        1.76750000      -1.30390000      -1.17180000
N        2.45380000      -2.22560000      -1.04280000
H        0.44980000       2.30040000      -0.06230000
H       -1.01720000       1.80550000      -0.93650000
H       -1.00860000       1.83810000       0.84850000
H        1.13580000      -0.87770000       1.26730000
