16
Properties=species:S:1:pos:R:3 gdb_130057=T pbc="F F F"
N        0.44330000       1.32710000      -0.75150000
C        0.16470000       0.06100000      -0.23810000
N       -0.96830000      -0.56430000      -0.54980000
N       -0.94630000      -1.70120000       0.19750000
C       -2.01130000      -2.66790000      -0.00930000
C       -2.13370000      -3.62240000       1.08490000
C       -2.24490000      -4.42990000       1.96650000
C        0.18080000      -1.80970000       0.93560000
C        0.93310000      -0.68010000       0.69340000
H        1.42160000       1.46560000      -0.96440000
H       -0.13000000       1.53710000      -1.55840000
H       -2.93970000      -2.09920000      -0.12720000
H       -1.84930000      -3.20660000      -0.95350000
H       -2.35110000      -5.13770000       2.75140000
H        0.34890000      -2.65930000       1.57720000
H        1.87670000      -0.41420000       1.14120000
