17
Properties=species:S:1:pos:R:3 gdb_41314=T pbc="F F F"
C        0.04120000       1.53640000      -0.22080000
O        1.45030000       1.55120000       0.21330000
C        1.25020000       0.26040000       0.79420000
C        0.48870000       0.10240000       2.13770000
C       -0.34290000      -0.85450000       1.26180000
O        0.64550000      -1.89910000       1.01820000
C        1.60810000      -1.16020000       0.22190000
C        0.76940000      -0.85070000      -1.02710000
C       -0.04850000       0.01060000      -0.01870000
H       -0.58060000       2.14980000       0.43990000
H       -0.05960000       1.88980000      -1.25080000
H        0.98160000      -0.33980000       3.00400000
H       -0.01470000       1.03260000       2.40450000
H       -1.29210000      -1.31080000       1.53950000
H        2.57250000      -1.66710000       0.24740000
H        1.27730000      -0.21040000      -1.75000000
H        0.29830000      -1.70330000      -1.51860000
