18
Properties=species:S:1:pos:R:3 gdb_29811=T pbc="F F F"
C       -0.08650000       1.43850000       0.03540000
N       -0.02630000      -0.01200000       0.02900000
C       -0.05130000      -0.78350000      -1.09230000
C        0.02270000      -2.12530000      -0.74190000
C        0.02310000      -3.28950000      -1.68750000
C        0.09580000      -2.15550000       0.66450000
C        0.06500000      -0.84610000       1.13380000
C        0.11480000      -0.36970000       2.50020000
O        0.19490000      -1.08920000       3.47680000
H        0.80970000       1.87110000       0.48980000
H       -0.15380000       1.78730000      -0.99630000
H       -0.96470000       1.79710000       0.58040000
H       -0.12030000      -0.32720000      -2.06900000
H        0.93600000      -3.88780000      -1.59120000
H       -0.82200000      -3.96150000      -1.50120000
H       -0.04410000      -2.95520000      -2.72690000
H        0.16470000      -3.02410000       1.30180000
H        0.07450000       0.73710000       2.61810000
