17
Properties=species:S:1:pos:R:3 gdb_126006=T pbc="F F F"
C       -0.21020000       1.57490000      -0.05070000
C        0.01610000       0.06250000       0.02000000
C        0.92140000      -0.47050000      -1.15660000
N        1.74250000      -1.58130000      -0.58890000
C        1.72670000      -1.33800000       0.76570000
C        0.79220000      -0.45380000       1.20440000
C        0.95960000      -0.51410000       2.60390000
N        1.92400000      -1.33890000       2.96760000
O        2.42710000      -1.89280000       1.73760000
H        0.73890000       2.11580000       0.02030000
H       -0.69740000       1.85670000      -0.99060000
H       -0.85230000       1.91130000       0.76910000
H       -0.96230000      -0.43480000      -0.03930000
H        0.33400000      -0.83070000      -2.00420000
H        1.57220000       0.34210000      -1.50740000
H        2.64200000      -1.73820000      -1.02420000
H        0.43830000       0.01400000       3.39130000
