21
Properties=species:S:1:pos:R:3 gdb_69417=T pbc="F F F"
C        0.01870000       1.56430000       0.03760000
C        0.03860000       0.06370000      -0.00640000
C       -0.93470000      -0.80060000       0.74240000
C        0.53890000      -0.95290000       1.02970000
C        1.24110000      -1.76100000      -0.06820000
C        0.91820000      -3.25910000      -0.19070000
C        1.54840000      -3.87690000      -1.35160000
C        2.08160000      -4.35570000      -2.31710000
C        0.67300000      -0.76740000      -1.13620000
H        1.00960000       1.98450000      -0.17070000
H       -0.67580000       1.97440000      -0.70620000
H       -0.29980000       1.92860000       1.02020000
H       -1.49630000      -0.29610000       1.52310000
H       -1.49780000      -1.58120000       0.23500000
H        0.93740000      -0.77470000       2.02270000
H        2.32600000      -1.64530000       0.00340000
H        1.24560000      -3.77350000       0.72280000
H       -0.16780000      -3.40350000      -0.24680000
H        2.54650000      -4.79170000      -3.16610000
H       -0.02490000      -1.18780000      -1.86830000
H        1.46220000      -0.23950000      -1.67640000
