19
Properties=species:S:1:pos:R:3 gdb_86900=T pbc="F F F"
O       -0.22080000       1.48650000       0.18460000
C       -0.02310000       0.07580000       0.05210000
C        0.68750000      -0.54300000       1.25350000
C       -0.42520000      -0.66450000       2.33050000
C       -1.71280000      -0.97260000       1.51190000
C       -1.39540000      -0.64500000       0.01760000
O       -2.38150000       0.12050000      -0.62870000
C       -0.10900000      -1.74460000       3.33740000
O        0.06540000      -1.57540000       4.51500000
H       -0.39280000       1.69100000       1.11050000
H        0.52810000      -0.04680000      -0.88340000
H        1.04910000      -1.54240000       0.97830000
H        1.54970000       0.04020000       1.58660000
H       -0.52300000       0.27020000       2.89240000
H       -2.00420000      -2.02280000       1.62020000
H       -2.55980000      -0.37350000       1.85310000
H       -1.29170000      -1.58040000      -0.54460000
H       -2.09100000       1.03990000      -0.53540000
H       -0.04350000      -2.76430000       2.88420000
