20
Properties=species:S:1:pos:R:3 gdb_18594=T pbc="F F F"
C       -0.79520000       1.31180000      -0.00260000
C       -0.07660000      -0.03040000      -0.02880000
C        1.13750000      -0.16340000      -0.99490000
C        2.03920000      -0.63770000       0.17780000
C        3.09340000       0.36780000       0.64440000
O        2.36900000       1.39160000       1.32020000
C        1.35670000       0.72400000       2.06900000
C        0.84910000      -0.41220000       1.17600000
H       -0.08830000       2.13260000       0.15630000
H       -1.30690000       1.49230000      -0.95460000
H       -1.54980000       1.35290000       0.79120000
H       -0.80540000      -0.82830000      -0.20410000
H        1.01210000      -0.88260000      -1.80790000
H        1.45810000       0.79040000      -1.42610000
H        2.42950000      -1.65280000       0.08960000
H        3.81110000      -0.11220000       1.33070000
H        3.65210000       0.83760000      -0.17070000
H        1.77970000       0.30930000       2.99920000
H        0.59990000       1.46520000       2.33820000
H        0.51100000      -1.26940000       1.76160000
