19
Properties=species:S:1:pos:R:3 gdb_32680=T pbc="F F F"
C       -0.13070000       1.59240000      -0.09440000
C        0.23280000       0.11680000       0.09680000
C        0.75220000      -0.51720000      -1.19240000
C        0.89830000      -2.09790000      -1.21230000
N       -0.09550000      -2.09360000      -2.30390000
C       -0.94970000      -2.62920000      -3.23920000
C       -1.57790000      -1.51260000      -3.76210000
N       -1.14420000      -0.32950000      -3.17780000
C       -0.25470000      -0.75580000      -2.31280000
H        0.74390000       2.17930000      -0.39600000
H       -0.89290000       1.70530000      -0.87150000
H       -0.51950000       2.02440000       0.83240000
H        0.99570000       0.01370000       0.87910000
H       -0.64840000      -0.44020000       0.43910000
H        1.66740000      -0.01280000      -1.52190000
H        1.87690000      -2.48600000      -1.50660000
H        0.55150000      -2.60140000      -0.30560000
H       -1.03730000      -3.67970000      -3.45620000
H       -2.32720000      -1.49920000      -4.53980000
