18
Properties=species:S:1:pos:R:3 gdb_116706=T pbc="F F F"
C        0.41310000       0.93590000      -0.37610000
O       -0.20640000      -0.10430000       0.37360000
C        0.63360000      -0.92250000       1.02810000
N        0.17920000      -1.90700000       1.67440000
C        1.11320000      -2.71710000       2.39070000
C        1.17730000      -4.18470000       2.12840000
C        2.39050000      -3.32230000       1.77640000
C        2.74780000      -3.11900000       0.40570000
C        3.06870000      -2.94810000      -0.74240000
H        1.07440000       0.52960000      -1.15010000
H       -0.39440000       1.49500000      -0.84980000
H        0.98510000       1.61060000       0.27200000
H        1.69490000      -0.65840000       0.94290000
H        1.22530000      -2.42090000       3.43180000
H        1.27040000      -4.87350000       2.96060000
H        0.59700000      -4.54800000       1.28810000
H        3.23680000      -3.39490000       2.45410000
H        3.34710000      -2.81900000      -1.75860000
