15
Properties=species:S:1:pos:R:3 gdb_21228=T pbc="F F F"
C       -0.36220000       1.46700000      -0.48290000
N       -0.45290000       0.02350000      -0.64080000
C       -0.63030000      -0.67460000       0.61870000
C       -1.00110000      -2.10000000       0.37470000
N       -1.68810000      -2.58410000      -0.61790000
C       -1.74620000      -3.91690000      -0.29290000
N       -1.14830000      -4.24830000       0.81690000
O       -0.63880000      -3.02170000       1.27180000
H       -0.28620000       1.93480000      -1.46790000
H       -1.21790000       1.91870000       0.05130000
H        0.54590000       1.72040000       0.07630000
H       -1.21120000      -0.22680000      -1.26600000
H        0.29760000      -0.64460000       1.20250000
H       -1.41480000      -0.23110000       1.26620000
H       -2.24790000      -4.65630000      -0.90010000
