20
Properties=species:S:1:pos:R:3 gdb_14420=T pbc="F F F"
C       -0.00030000       1.60980000      -0.00760000
C        0.09620000       0.08890000      -0.00430000
C        0.81100000      -0.66630000      -1.12510000
C        2.29900000      -0.79850000      -0.73510000
C        2.48710000      -0.12920000       0.62250000
C        1.06840000      -0.66060000       0.96050000
C        1.26550000      -1.75410000      -0.18180000
C        1.13380000      -3.24040000      -0.20520000
H        0.96830000       2.08470000      -0.18580000
H       -0.68050000       1.95030000      -0.79650000
H       -0.39020000       1.98290000       0.94670000
H       -0.90490000      -0.34140000       0.12150000
H        0.50310000      -0.77980000      -2.15810000
H        3.04720000      -1.00650000      -1.49050000
H        3.25060000      -0.64690000       1.21070000
H        2.66420000       0.95070000       0.67680000
H        0.77870000      -0.85300000       1.99270000
H        0.11820000      -3.56260000       0.05470000
H        1.35720000      -3.63190000      -1.20410000
H        1.82300000      -3.72140000       0.49930000
