19
Properties=species:S:1:pos:R:3 gdb_8440=T pbc="F F F"
C        0.05910000       1.53020000       0.05930000
C       -0.02350000       0.03520000      -0.02060000
C       -0.87590000      -0.79660000       0.85450000
N        0.58750000      -0.89390000       1.02240000
C        1.03910000      -1.79190000      -0.09790000
C        0.52810000      -0.80230000      -1.18830000
C       -0.43020000      -1.29570000      -2.26460000
O        1.59180000      -0.06380000      -1.77420000
H        1.03000000       1.88190000      -0.29660000
H       -0.72000000       1.99910000      -0.55330000
H       -0.07760000       1.86050000       1.09310000
H       -1.36720000      -0.29600000       1.68390000
H       -1.42090000      -1.65500000       0.46630000
H        2.12800000      -1.87040000      -0.10320000
H        0.59290000      -2.79270000      -0.06670000
H       -1.29140000      -1.81840000      -1.84030000
H       -0.79230000      -0.45370000      -2.86260000
H        0.07880000      -1.99700000      -2.93850000
H        2.00710000      -0.62090000      -2.44100000
