18
Properties=species:S:1:pos:R:3 gdb_85707=T pbc="F F F"
C        0.03040000       1.57800000      -0.15340000
C        0.08360000       0.07000000       0.00580000
C        1.05480000      -0.75170000      -0.88050000
C        1.30520000      -1.69950000       0.32820000
C        2.63880000      -2.23100000       0.53920000
N        3.70330000      -2.65450000       0.69410000
C        0.76200000      -0.56210000       1.28280000
C        1.79180000       0.24760000       1.89940000
C        2.65050000       0.91880000       2.40700000
H        1.02180000       2.02320000      -0.03150000
H       -0.34580000       1.84350000      -1.14720000
H       -0.63460000       2.03250000       0.58830000
H       -0.92440000      -0.35180000      -0.07110000
H        0.66610000      -1.20820000      -1.79210000
H        1.95610000      -0.18140000      -1.11820000
H        0.59120000      -2.52780000       0.32240000
H        0.06650000      -0.92340000       2.04530000
H        3.41560000       1.49800000       2.86210000
