23
Properties=species:S:1:pos:R:3 gdb_72394=T pbc="F F F"
C       -0.02050000       1.51660000       0.00580000
C       -0.00660000      -0.00220000       0.02180000
C        0.73010000      -0.67460000      -1.19270000
C        0.96480000      -2.13390000      -0.70870000
C        0.33800000      -2.14480000       0.73240000
C        0.75630000      -3.31360000       1.60770000
C        0.71620000      -0.71480000       1.19180000
C       -1.16010000      -1.95240000       0.51480000
C       -1.36150000      -0.69990000       0.09940000
H        0.99750000       1.92130000      -0.01530000
H       -0.54570000       1.89990000      -0.87680000
H       -0.52370000       1.91910000       0.89160000
H        0.13490000      -0.61580000      -2.10790000
H        1.67880000      -0.16150000      -1.38500000
H        0.49930000      -2.88160000      -1.35640000
H        2.03360000      -2.36790000      -0.65320000
H        1.84450000      -3.34550000       1.73150000
H        0.30680000      -3.24500000       2.60430000
H        0.44640000      -4.26930000       1.16930000
H        1.79860000      -0.53670000       1.20390000
H        0.29180000      -0.45950000       2.16740000
H       -1.88990000      -2.75110000       0.58570000
H       -2.29090000      -0.25750000      -0.24130000
