16
Properties=species:S:1:pos:R:3 gdb_78717=T pbc="F F F"
C       -0.14030000       1.46310000       0.06560000
C        0.04240000      -0.04790000      -0.00500000
C        0.88880000      -0.51980000      -1.19300000
C        2.17080000      -0.44380000      -0.38500000
C        1.21530000      -0.59430000       0.85960000
O        1.13800000      -2.03840000       0.66940000
C        1.59120000      -1.79910000      -0.66020000
C        2.04330000      -2.86810000      -1.48560000
N        2.41440000      -3.72090000      -2.17350000
H        0.81190000       1.98800000      -0.06730000
H       -0.82530000       1.81230000      -0.71310000
H       -0.55930000       1.75660000       1.03370000
H       -0.90420000      -0.57300000       0.16050000
H        0.74960000      -0.35160000      -2.25310000
H        3.15190000      -0.02970000      -0.56600000
H        1.39030000      -0.30110000       1.89190000
