21
Properties=species:S:1:pos:R:3 gdb_121105=T pbc="F F F"
C        0.17870000       1.55790000       0.15630000
C        0.17580000       0.05090000       0.03840000
O        0.93830000      -0.36240000      -1.08630000
C        1.57820000      -1.58710000      -0.74880000
C        1.19940000      -1.83260000       0.72990000
C        2.32480000      -2.34340000       1.61180000
C        1.90500000      -2.53120000       3.06460000
O        3.01690000      -3.06900000       3.76490000
O        0.78540000      -0.53880000       1.16200000
H        1.20470000       1.91470000       0.27380000
H       -0.25410000       2.00030000      -0.74430000
H       -0.41370000       1.86820000       1.02090000
H       -0.85620000      -0.33740000      -0.06580000
H        1.23290000      -2.39870000      -1.40090000
H        2.66150000      -1.47120000      -0.87690000
H        0.33900000      -2.52160000       0.77940000
H        2.67850000      -3.30480000       1.22030000
H        3.16590000      -1.64280000       1.56650000
H        1.59160000      -1.56410000       3.48200000
H        1.03620000      -3.20910000       3.11470000
H        2.78960000      -3.11560000       4.69790000
