7
Properties=species:S:1:pos:R:3 gdb_322=T pbc="F F F"
O       -0.02580000      -0.07610000       0.00330000
C        0.00080000       1.13120000       0.00630000
C        1.20040000       1.92540000       0.00010000
C        2.20040000       2.59450000      -0.00500000
C       -1.24360000       1.92070000       0.01790000
N       -2.22390000       2.53360000       0.02700000
H        3.08770000       3.18130000      -0.00940000
