19
Properties=species:S:1:pos:R:3 gdb_13564=T pbc="F F F"
C       -0.60800000       1.26520000       0.09250000
C       -0.05940000      -0.14420000       0.08880000
C        1.36330000      -0.39200000      -0.34670000
C        0.97830000      -0.60440000       1.09640000
N        1.45580000       0.27630000       2.12100000
C        0.58960000       0.50010000       3.27010000
C        2.76870000       0.65830000       2.19250000
O        3.26810000       1.28950000       3.10060000
H        0.12970000       1.97460000       0.47830000
H       -0.87570000       1.57980000      -0.92180000
H       -1.50800000       1.34370000       0.71150000
H       -0.77900000      -0.90980000      -0.18830000
H        1.60060000      -1.26620000      -0.94200000
H        1.95570000       0.48410000      -0.58620000
H        0.88500000      -1.64170000       1.41940000
H        0.32500000      -0.45140000       3.74900000
H        1.13300000       1.12130000       3.98190000
H       -0.33330000       1.00260000       2.96700000
H        3.33740000       0.33200000       1.30380000
