25
Properties=species:S:1:pos:R:3 gdb_121136=T pbc="F F F"
C        0.12480000       1.57550000       0.00420000
C        0.02340000       0.04910000       0.06500000
C       -1.41620000      -0.46600000      -0.06580000
C       -1.51270000      -1.98440000      -0.00390000
C       -1.23800000      -2.73920000       1.32760000
C       -2.34470000      -3.75430000       0.93720000
C       -2.88800000      -2.71040000      -0.08800000
C       -4.08100000      -1.91990000       0.44160000
O       -3.13700000      -3.17330000      -1.40440000
H        1.16210000       1.91240000       0.09800000
H       -0.26600000       1.96040000      -0.94440000
H       -0.45090000       2.04330000       0.81090000
H        0.63700000      -0.39190000      -0.73160000
H        0.45190000      -0.30910000       1.01010000
H       -2.02960000      -0.01840000       0.72820000
H       -1.84020000      -0.11520000      -1.01680000
H       -0.89130000      -2.42190000      -0.79430000
H       -0.23140000      -3.13040000       1.48790000
H       -1.51770000      -2.13940000       2.20000000
H       -1.93670000      -4.61900000       0.40800000
H       -3.02560000      -4.09870000       1.72110000
H       -3.89660000      -1.53000000       1.44720000
H       -4.31830000      -1.07970000      -0.21780000
H       -4.96450000      -2.56860000       0.50290000
H       -4.01520000      -3.56910000      -1.42530000
