20
Properties=species:S:1:pos:R:3 gdb_63235=T pbc="F F F"
C        0.32200000       1.51770000      -0.01730000
C       -0.02540000       0.02970000      -0.04050000
O       -1.46410000      -0.02920000       0.03300000
C        0.42640000      -0.62320000      -1.32450000
C        1.03050000      -1.80660000      -1.41300000
C        1.40810000      -2.67340000      -0.24290000
C        1.22880000      -1.98650000       1.09410000
N        2.00900000      -0.75160000       1.28860000
C        0.54410000      -0.66900000       1.18740000
H        1.40650000       1.64710000      -0.01110000
H       -0.09870000       2.01910000      -0.89360000
H       -0.09870000       1.98600000       0.87800000
H       -1.71710000      -0.94180000      -0.14560000
H        0.17900000      -0.07310000      -2.22950000
H        1.27710000      -2.20230000      -2.39600000
H        0.80370000      -3.59230000      -0.26400000
H        2.45020000      -3.00480000      -0.34890000
H        1.13820000      -2.65380000       1.94880000
H        2.29770000      -0.66640000       2.25910000
H       -0.02150000      -0.44980000       2.09090000
