19
Properties=species:S:1:pos:R:3 gdb_51631=T pbc="F F F"
O       -0.12000000      -0.03080000      -0.18170000
C        0.02120000       1.16030000      -0.06670000
C        1.34320000       1.88400000      -0.16580000
C        1.35240000       2.96890000      -1.25310000
C        0.41570000       4.19870000      -0.98030000
C        1.51380000       5.28120000      -0.93510000
C        2.38220000       4.97820000      -2.17540000
C        2.68490000       3.76220000      -1.27670000
O        2.54080000       4.63510000      -0.11340000
H       -0.85920000       1.81780000       0.12140000
H        1.54720000       2.37230000       0.79720000
H        2.12230000       1.13690000      -0.34750000
H        1.15310000       2.51430000      -2.22880000
H       -0.32380000       4.36820000      -1.76690000
H       -0.10590000       4.13020000      -0.02280000
H        1.25240000       6.28800000      -0.61090000
H        1.89980000       4.82400000      -3.14420000
H        3.23660000       5.65070000      -2.25120000
H        3.62120000       3.20420000      -1.30470000
