17
Properties=species:S:1:pos:R:3 gdb_110087=T pbc="F F F"
O        0.06480000       1.33850000       0.48230000
C        0.05350000       0.08980000      -0.18580000
C       -1.32000000      -0.54910000      -0.12150000
C       -1.54550000      -2.05290000      -0.17730000
C       -0.42890000      -3.02710000      -0.29230000
O       -0.48200000      -4.00430000      -0.99840000
C       -1.77150000      -1.26660000       1.12850000
C       -0.88040000      -1.39370000       2.24730000
C       -0.14640000      -1.45240000       3.19950000
H       -0.03950000       1.15530000       1.42300000
H        0.31380000       0.29640000      -1.22870000
H        0.82030000      -0.58320000       0.21730000
H       -2.09150000       0.03880000      -0.61020000
H       -2.44280000      -2.38580000      -0.68800000
H        0.46600000      -2.81460000       0.32780000
H       -2.81670000      -1.15430000       1.40100000
H        0.49600000      -1.53280000       4.04180000
