14
Properties=species:S:1:pos:R:3 gdb_15479=T pbc="F F F"
O       -0.00790000       0.07420000      -0.48420000
C        0.03430000       1.21620000      -0.14280000
O       -1.06620000       1.92870000       0.20650000
C       -0.72060000       3.27300000       0.58500000
C        0.64960000       3.53590000      -0.05170000
C        1.28260000       2.12960000      -0.02600000
C        1.99410000       1.84110000       1.21280000
C        2.56160000       1.62150000       2.24890000
H       -1.50980000       3.93290000       0.22080000
H       -0.68160000       3.32960000       1.67820000
H        0.52910000       3.86440000      -1.08800000
H        1.23200000       4.28220000       0.48880000
H        1.93040000       1.93480000      -0.88440000
H        3.07230000       1.41210000       3.15630000
