23
Properties=species:S:1:pos:R:3 gdb_106808=T pbc="F F F"
C        0.03990000       1.52570000      -0.30050000
C       -0.02530000       0.07080000       0.18350000
C       -1.42020000      -0.51420000       0.14070000
C       -1.98170000      -1.06900000      -1.16700000
C       -1.72730000      -1.98650000       0.00900000
C       -0.73290000      -3.11140000      -0.03800000
O       -2.83970000      -2.31750000       0.81340000
C       -3.51390000      -1.11430000       1.17130000
C       -2.46320000       0.01310000       1.12160000
H        1.06670000       1.90370000      -0.27630000
H       -0.32810000       1.61260000      -1.32830000
H       -0.57100000       2.18290000       0.32690000
H        0.64580000      -0.54050000      -0.43170000
H        0.36120000       0.01010000       1.21020000
H       -3.00240000      -0.84250000      -1.45800000
H       -1.29060000      -1.13570000      -2.00190000
H        0.14210000      -2.83740000      -0.63290000
H       -0.40160000      -3.37690000       0.97100000
H       -1.18410000      -4.00070000      -0.49010000
H       -4.33310000      -0.91420000       0.46600000
H       -3.95530000      -1.25650000       2.16180000
H       -1.99120000       0.15420000       2.10140000
H       -2.91080000       0.96770000       0.82750000
