22
Properties=species:S:1:pos:R:3 gdb_107422=T pbc="F F F"
C        0.17890000       1.50520000      -0.19790000
C       -0.13020000       0.03430000       0.10890000
C        0.64240000      -0.50550000       1.29500000
C        2.06530000      -0.98260000       1.10800000
C        0.98540000      -1.97440000       1.46590000
C        0.74780000      -2.33500000       2.93280000
N        0.21030000      -1.14510000       3.63860000
C        1.15370000      -0.03470000       3.82660000
C        0.21810000      -0.02420000       2.67280000
H        1.24280000       1.64460000      -0.41630000
H       -0.39320000       1.85700000      -1.06200000
H       -0.07060000       2.15070000       0.65100000
H       -1.20640000      -0.08500000       0.29260000
H        0.09920000      -0.57750000      -0.77190000
H        2.43330000      -1.01150000       0.08620000
H        2.83240000      -0.73380000       1.83210000
H        0.69460000      -2.70160000       0.71380000
H       -0.00720000      -3.12550000       2.99720000
H        1.64660000      -2.70330000       3.44140000
H        0.94980000       0.58520000       4.69690000
H        2.21190000      -0.20240000       3.64900000
H       -0.64810000       0.63350000       2.69550000
