22
Properties=species:S:1:pos:R:3 gdb_78688=T pbc="F F F"
C       -0.25290000       1.62230000      -0.00850000
C       -0.05560000       0.11590000       0.01250000
C        1.17410000      -0.50600000      -0.65750000
C        2.14820000      -0.16620000       0.51460000
C        0.76260000      -0.53500000       1.13270000
N        1.07410000      -1.77290000       0.24170000
C        2.57260000      -1.64160000       0.58820000
C        3.49960000      -2.18730000      -0.49160000
C        2.93940000      -2.22670000       1.94690000
H        0.67610000       2.15790000       0.21380000
H       -0.60450000       1.95760000      -0.99020000
H       -1.00020000       1.92980000       0.73100000
H       -0.98330000      -0.42450000      -0.20950000
H        1.40290000      -0.59250000      -1.72030000
H        2.74040000       0.74400000       0.66550000
H        0.50500000      -0.65560000       2.18560000
H        3.28310000      -1.77810000      -1.48100000
H        4.54290000      -1.95240000      -0.25400000
H        3.40900000      -3.27740000      -0.55120000
H        2.84370000      -3.31780000       1.92660000
H        3.97890000      -1.98820000       2.19750000
H        2.30730000      -1.84960000       2.75410000
