16
Properties=species:S:1:pos:R:3 gdb_44418=T pbc="F F F"
N       -0.02920000       1.23740000       0.31800000
C        0.03660000       0.03020000       0.02130000
O        1.17480000      -0.80370000      -0.26290000
C        0.22080000      -1.67750000      -1.03650000
C       -0.69810000      -2.97440000      -1.00460000
C       -0.74760000      -3.46790000       0.43320000
C       -0.89700000      -2.07370000       1.09700000
C       -0.86100000      -1.19420000      -0.17950000
O       -1.81200000      -1.96890000      -1.06020000
H        0.89420000       1.67150000       0.36060000
H        0.19170000      -1.27860000      -2.04970000
H       -0.72430000      -3.66620000      -1.84590000
H       -1.60710000      -4.11980000       0.59950000
H        0.16150000      -3.99980000       0.72500000
H       -1.85630000      -1.93300000       1.59910000
H       -0.09480000      -1.83490000       1.79640000
