18
Properties=species:S:1:pos:R:3 gdb_24163=T pbc="F F F"
C       -0.35930000       1.03520000      -0.26710000
C        1.05800000       1.12070000       0.26650000
C        0.42670000      -0.21220000       0.04120000
O        0.11620000      -0.94160000       1.19140000
C       -0.89090000      -1.85220000       1.05590000
C       -1.71070000      -2.08950000      -0.02800000
N       -2.56060000      -3.11460000       0.33760000
C       -2.29090000      -3.51610000       1.61570000
C       -1.25340000      -2.75050000       2.09620000
H       -1.16120000       1.28530000       0.41760000
H       -0.54580000       1.29170000      -1.30450000
H        1.85380000       1.43460000      -0.39930000
H        1.17920000       1.42690000       1.29910000
H        0.76910000      -0.82930000      -0.78860000
H       -1.76900000      -1.62350000      -0.99540000
H       -3.27260000      -3.50340000      -0.25330000
H       -2.85200000      -4.31030000       2.08110000
H       -0.79470000      -2.81410000       3.06970000
