17
Properties=species:S:1:pos:R:3 gdb_1151=T pbc="F F F"
C       -0.01020000       1.45420000       0.00530000
C       -0.00190000      -0.04970000       0.00530000
C        0.61740000      -0.99290000      -1.07700000
C        0.01330000      -1.92140000      -0.00350000
O        0.06740000      -3.30030000      -0.08540000
C        0.63690000      -0.98680000       1.07820000
C       -1.24270000      -0.99710000       0.01160000
H        1.00960000       1.85410000      -0.00310000
H       -0.53080000       1.84560000      -0.87550000
H       -0.51600000       1.84540000       0.89470000
H        0.13250000      -0.99780000      -2.05730000
H        1.70770000      -0.98920000      -1.16340000
H       -0.37070000      -3.66790000       0.68960000
H        1.72820000      -0.97870000       1.14910000
H        0.16550000      -0.98680000       2.06650000
H       -1.84940000      -0.99790000       0.92310000
H       -1.86330000      -0.99840000      -0.88900000
