23
Properties=species:S:1:pos:R:3 gdb_114866=T pbc="F F F"
C        0.02140000       1.60730000      -0.05420000
C        0.00220000       0.07650000      -0.11810000
C       -1.38390000      -0.54110000       0.08660000
C       -1.41490000      -2.07910000      -0.06410000
C       -2.74550000      -2.51170000       0.57680000
C       -2.67720000      -3.46230000       1.78750000
O       -2.76400000      -2.36020000       2.71540000
C       -3.04940000      -1.42600000       1.64180000
C       -2.01520000      -0.30080000       1.48010000
H        1.02780000       1.99750000      -0.23520000
H       -0.64380000       2.04300000      -0.80840000
H       -0.30390000       1.97320000       0.92500000
H        0.39560000      -0.24840000      -1.09020000
H        0.68580000      -0.33210000       0.63900000
H       -2.06310000      -0.11610000      -0.66810000
H       -1.31540000      -2.39840000      -1.10570000
H       -0.57010000      -2.51260000       0.48710000
H       -3.52310000      -2.72450000      -0.15870000
H       -3.53550000      -4.14040000       1.88600000
H       -1.75170000      -4.03860000       1.91210000
H       -4.08260000      -1.06510000       1.70780000
H       -1.26030000      -0.41650000       2.26660000
H       -2.45150000       0.69630000       1.58090000
