19
Properties=species:S:1:pos:R:3 gdb_122613=T pbc="F F F"
O       -0.12860000       1.49860000       0.10250000
C        0.00920000       0.08870000       0.03920000
C       -1.38930000      -0.51500000       0.03600000
C       -1.37170000      -2.04220000      -0.09390000
C       -2.77390000      -2.64710000      -0.03420000
C       -2.92710000      -4.17740000       0.06970000
O       -3.58500000      -4.03630000       1.37040000
C       -3.45190000      -2.66970000       1.34250000
O       -3.77550000      -1.89150000       2.18120000
H        0.75000000       1.88670000       0.14580000
H        0.55100000      -0.21920000      -0.87130000
H        0.57810000      -0.29780000       0.90090000
H       -1.90670000      -0.22470000       0.95620000
H       -1.95360000      -0.07500000      -0.79540000
H       -0.90190000      -2.33420000      -1.04220000
H       -0.75720000      -2.47970000       0.70430000
H       -3.42240000      -2.19680000      -0.79210000
H       -3.59230000      -4.65720000      -0.65070000
H       -1.99700000      -4.74230000       0.16990000
