19
Properties=species:S:1:pos:R:3 gdb_81267=T pbc="F F F"
C       -0.16740000       1.50170000       0.06590000
C        0.01270000      -0.00890000       0.00810000
C        0.76080000      -0.61300000      -1.22310000
C        2.09300000      -0.29150000      -0.48720000
C        1.25610000      -0.60520000       0.79600000
C        0.95230000      -2.06780000       0.57200000
O        0.82160000      -2.98110000       1.34590000
C        0.65520000      -2.12190000      -0.95240000
O       -0.62320000      -2.66210000      -1.20300000
H        0.75500000       2.05590000      -0.12710000
H       -0.90630000       1.81860000      -0.67820000
H       -0.53830000       1.80690000       1.04970000
H       -0.94210000      -0.49560000       0.22680000
H        0.56480000      -0.27620000      -2.24080000
H        2.96280000      -0.92210000      -0.69460000
H        2.38090000       0.75650000      -0.55320000
H        1.53180000      -0.28680000       1.79950000
H        1.43640000      -2.68310000      -1.48950000
H       -0.73650000      -3.39810000      -0.58800000
