23
Properties=species:S:1:pos:R:3 gdb_114097=T pbc="F F F"
C        0.20350000       1.41120000      -0.28080000
C        0.06960000      -0.09340000      -0.02640000
C       -1.37640000      -0.54870000       0.12470000
C       -2.33110000      -0.48560000      -1.11490000
C       -2.73440000      -1.97780000      -0.89280000
C       -4.19960000      -2.31450000      -0.74520000
C       -1.80850000      -2.95190000      -1.64380000
O       -0.79960000      -2.87010000      -0.61110000
C       -1.65480000      -2.06600000       0.23190000
H        1.25220000       1.70180000      -0.39760000
H       -0.32610000       1.71090000      -1.19200000
H       -0.21320000       1.99430000       0.54830000
H        0.53110000      -0.65930000      -0.84290000
H        0.62570000      -0.36360000       0.88120000
H       -1.84120000      -0.03850000       0.97790000
H       -3.15810000       0.22200000      -1.01640000
H       -1.83210000      -0.29620000      -2.07080000
H       -4.72840000      -2.18870000      -1.69820000
H       -4.34230000      -3.35070000      -0.41920000
H       -4.68730000      -1.66140000      -0.01330000
H       -2.20330000      -3.97410000      -1.73130000
H       -1.43350000      -2.62880000      -2.62340000
H       -1.79310000      -2.51520000       1.22100000
