20
Properties=species:S:1:pos:R:3 gdb_121305=T pbc="F F F"
O       -0.12850000       1.49840000      -0.10070000
C        0.03880000       0.09090000      -0.03610000
C       -1.35170000      -0.52840000       0.06530000
C       -1.37200000      -2.06140000       0.06670000
C       -0.79650000      -2.66030000       1.35000000
O       -0.88160000      -4.09290000       1.35170000
C       -1.99150000      -4.61930000       0.77870000
N       -2.91450000      -4.04520000       0.13470000
C       -2.79790000      -2.60920000      -0.09900000
H        0.74160000       1.90450000      -0.15260000
H        0.54910000      -0.29360000      -0.93470000
H        0.65430000      -0.19190000       0.83280000
H       -1.84270000      -0.14520000       0.96900000
H       -1.94130000      -0.16130000      -0.78340000
H       -0.76770000      -2.43180000      -0.77310000
H        0.26350000      -2.43360000       1.48350000
H       -1.34140000      -2.27700000       2.22420000
H       -2.00970000      -5.69590000       0.93950000
H       -3.48400000      -2.08590000       0.58260000
H       -3.16380000      -2.40130000      -1.11120000
