21
Properties=species:S:1:pos:R:3 gdb_111767=T pbc="F F F"
C       -0.42920000       1.07360000       0.11270000
O        0.44500000       0.00780000      -0.20360000
C        0.97330000      -0.61130000       0.92720000
C        0.21330000      -1.64800000       1.72960000
C       -0.67520000      -2.48200000       0.79600000
C        0.57770000      -2.88020000      -0.04820000
C        1.44360000      -2.02440000       0.88640000
O        2.69210000      -2.39160000       1.34270000
C        3.72470000      -2.14420000       0.40110000
H        0.09430000       1.87960000       0.64930000
H       -0.81250000       1.46880000      -0.83100000
H       -1.27170000       0.73700000       0.73340000
H        1.60170000       0.03460000       1.54470000
H        0.11010000      -1.56960000       2.80540000
H       -1.13060000      -3.33740000       1.29820000
H       -1.45150000      -1.92800000       0.26240000
H        0.81830000      -3.94090000       0.05040000
H        0.57380000      -2.59930000      -1.10380000
H        3.58000000      -2.72330000      -0.52160000
H        3.78100000      -1.07860000       0.13850000
H        4.66300000      -2.45100000       0.86850000
