19
Properties=species:S:1:pos:R:3 gdb_42892=T pbc="F F F"
O       -0.41090000       0.06890000      -0.21780000
C       -0.26020000       1.24450000      -0.02630000
C       -1.17550000       2.43070000      -0.04190000
C       -0.84720000       3.32910000       1.14610000
C        0.08410000       3.34210000      -0.01110000
C        1.01210000       2.11890000       0.05910000
C        2.13690000       1.98920000       1.12020000
C        3.19270000       2.19220000       0.00010000
C        2.08500000       1.91560000      -1.05170000
H       -2.10790000       2.53140000      -0.58330000
H       -1.51380000       4.17970000       1.24560000
H       -0.54240000       2.89230000       2.09310000
H        0.25350000       4.21660000      -0.62650000
H        2.12110000       2.71290000       1.93950000
H        2.16630000       0.98020000       1.54190000
H        3.55470000       3.22290000      -0.04280000
H        4.05550000       1.52270000      -0.00030000
H        2.08550000       0.87870000      -1.39840000
H        2.02610000       2.57830000      -1.91890000
