18
Properties=species:S:1:pos:R:3 gdb_13259=T pbc="F F F"
O        0.29740000       0.15130000      -0.66040000
C        0.32570000       1.33600000      -0.51260000
O        1.04690000       1.93510000       0.45080000
C        1.04680000       3.37000000       0.51440000
C        2.40560000       3.91790000       0.13090000
C        2.84860000       3.87150000      -1.35910000
C        3.45190000       5.29130000      -1.17990000
C        2.58140000       5.46300000       0.09520000
H       -0.23610000       2.05770000      -1.13870000
H        0.26500000       3.77180000      -0.14540000
H        0.78920000       3.63650000       1.54500000
H        3.16620000       3.45800000       0.76990000
H        3.51590000       3.06390000      -1.66570000
H        1.98470000       3.88350000      -2.03280000
H        4.51740000       5.25030000      -0.93790000
H        3.30850000       6.00900000      -1.99010000
H        1.63600000       5.96960000      -0.12740000
H        3.03220000       5.94190000       0.96720000
