17
Properties=species:S:1:pos:R:3 gdb_83726=T pbc="F F F"
O        0.36820000       1.16930000       0.61620000
C        0.04270000      -0.09290000       0.10470000
C       -1.45900000      -0.40460000       0.02740000
C       -2.32770000       0.70570000      -0.58650000
O       -2.37080000       0.02810000      -1.86710000
C       -1.67870000      -1.12510000      -1.34350000
C       -0.32260000      -1.31120000      -2.02640000
C        0.53490000      -0.25860000      -1.34120000
O        1.41050000       0.42660000      -1.80610000
H        1.06330000       1.51210000       0.03230000
H        0.53250000      -0.89160000       0.69300000
H       -1.84780000      -0.88190000       0.92540000
H       -3.32730000       0.80030000      -0.14690000
H       -1.86150000       1.69320000      -0.65060000
H       -2.30900000      -2.02000000      -1.35540000
H        0.09110000      -2.30720000      -1.81960000
H       -0.36430000      -1.16920000      -3.10780000
