20
Properties=species:S:1:pos:R:3 gdb_78862=T pbc="F F F"
C       -0.22600000       1.38440000      -0.01370000
C        0.04490000      -0.11160000       0.08950000
C        1.24100000      -0.56960000      -0.75350000
C        2.18180000      -0.41890000       0.37900000
C        0.91380000      -0.53270000       1.31570000
C        1.06470000      -2.02840000       1.09260000
C        1.45590000      -3.09470000       2.05410000
C        0.13590000      -3.17730000       1.29430000
N        1.87560000      -1.79000000      -0.12760000
H        0.69160000       1.96430000       0.13540000
H       -0.62990000       1.64650000      -0.99780000
H       -0.95470000       1.70320000       0.73920000
H       -0.88460000      -0.68110000      -0.03160000
H        1.41420000      -0.43450000      -1.81390000
H        3.18230000      -0.02160000       0.48400000
H        0.75640000      -0.08810000       2.29740000
H        2.25010000      -3.76980000       1.75370000
H        1.42220000      -2.87560000       3.11650000
H       -0.78560000      -3.01310000       1.84450000
H        0.06320000      -3.91020000       0.49790000
