22
Properties=species:S:1:pos:R:3 gdb_7280=T pbc="F F F"
C       -0.06750000       1.55050000       0.08140000
C       -0.03660000       0.01520000      -0.00140000
C       -1.47800000      -0.51910000       0.00370000
C        0.77880000      -0.48500000      -1.22320000
C        2.19100000       0.12240000      -1.28090000
C        0.88340000      -2.02720000      -1.25920000
C        1.45400000      -2.53460000      -2.56280000
O        2.38810000      -3.28630000      -2.67320000
H        0.92570000       1.98160000       0.22530000
H       -0.49430000       1.98440000      -0.83130000
H       -0.69050000       1.87430000       0.92120000
H        0.46730000      -0.35890000       0.90240000
H       -2.00790000      -0.22510000      -0.91070000
H       -1.52860000      -1.60790000       0.08530000
H       -2.03450000      -0.10740000       0.85160000
H        0.23450000      -0.16870000      -2.12710000
H        2.16700000       1.20290000      -1.43630000
H        2.73760000      -0.07430000      -0.35080000
H        2.77600000      -0.31240000      -2.09760000
H        1.49740000      -2.40600000      -0.43540000
H       -0.11520000      -2.47400000      -1.17120000
H        0.91980000      -2.15310000      -3.46690000
