12
Properties=species:S:1:pos:R:3 gdb_5049=T pbc="F F F"
N       -0.12590000       0.99580000       0.60730000
C       -0.00870000      -0.01990000      -0.13490000
N       -1.16470000      -0.64790000      -0.66240000
C       -1.37820000      -1.86700000      -0.34850000
C       -0.48580000      -2.72120000       0.45360000
N        0.79920000      -2.68510000       0.45270000
C        1.49620000      -1.76540000      -0.33030000
N        1.20310000      -0.55480000      -0.62090000
H        0.79950000       1.34840000       0.85710000
H       -2.29860000      -2.33300000      -0.70970000
H       -0.95870000      -3.50670000       1.04810000
H        2.44930000      -2.15630000      -0.68580000
