16
Properties=species:S:1:pos:R:3 gdb_71278=T pbc="F F F"
O        0.05320000       1.40250000       0.00490000
C       -0.01710000       0.02650000      -0.01980000
C        0.38670000      -0.73570000      -1.33910000
C       -0.82350000      -1.65050000      -1.12460000
C       -1.37340000      -0.75370000      -0.06530000
N       -0.95650000      -2.12070000       0.26530000
C        0.24010000      -2.09870000       1.12050000
C        0.72700000      -0.65080000       1.11390000
O        1.50660000      -0.09140000       1.84370000
H        0.68530000       1.62540000       0.70730000
H        0.22380000      -0.06040000      -2.18200000
H        1.38640000      -1.17800000      -1.41130000
H       -1.33770000      -2.22500000      -1.88620000
H       -2.36950000      -0.39090000       0.15680000
H       -0.03550000      -2.40250000       2.13520000
H        1.01680000      -2.78540000       0.76770000
