17
Properties=species:S:1:pos:R:3 gdb_65022=T pbc="F F F"
C       -0.01990000       1.35130000      -0.69450000
C        0.02360000      -0.05960000      -0.15250000
C        1.23070000      -0.87730000      -0.31910000
O        0.93150000      -0.27290000       0.94360000
C       -1.31200000      -0.75960000       0.05260000
C       -2.15770000      -0.10430000       1.14840000
O       -3.34000000      -0.28570000       1.27860000
C       -2.12460000      -0.97310000      -1.21950000
O       -1.68520000      -0.81380000      -2.32890000
H        0.98440000       1.78040000      -0.70150000
H       -0.41660000       1.35220000      -1.71260000
H       -0.65590000       1.99440000      -0.07580000
H        1.15420000      -1.96330000      -0.35120000
H        2.08770000      -0.45980000      -0.84440000
H       -1.11320000      -1.77000000       0.44670000
H       -1.58490000       0.54200000       1.84630000
H       -3.16730000      -1.29890000      -1.03900000
