19
Properties=species:S:1:pos:R:3 gdb_35276=T pbc="F F F"
C       -0.05350000      -1.16640000       0.27840000
C        0.05510000       0.03060000       0.25040000
C        0.13770000       1.46600000       0.19880000
O        0.98420000       2.12190000       1.15960000
C        1.36780000       2.18070000      -0.21330000
C        2.64230000       1.47450000      -0.60960000
C        3.87970000       2.26900000      -0.23930000
C        4.39750000       2.23850000       1.17620000
C        5.17270000       1.55950000       0.07380000
H       -0.14410000      -2.22420000       0.30970000
H       -0.81560000       1.96950000       0.03830000
H        1.21840000       3.16430000      -0.66540000
H        2.66550000       0.49310000      -0.12530000
H        2.61930000       1.29560000      -1.69330000
H        3.97430000       3.21950000      -0.75930000
H        4.79760000       3.15300000       1.59930000
H        3.86710000       1.61540000       1.88750000
H        5.17340000       0.47450000       0.04660000
H        6.10140000       2.01040000      -0.25830000
