19
Properties=species:S:1:pos:R:3 gdb_102951=T pbc="F F F"
O       -0.02090000       1.56920000      -0.16920000
C        0.01940000       0.16970000       0.05510000
C       -1.43420000      -0.33380000       0.09060000
C       -2.14810000      -0.07970000      -1.25600000
C       -3.64880000      -0.40580000      -1.21780000
C       -4.33320000      -0.02620000      -2.51090000
O       -4.98540000      -0.77130000      -3.19530000
C       -1.46430000      -1.74340000       0.47210000
C       -1.46850000      -2.90890000       0.76670000
H        0.88160000       1.89000000      -0.25090000
H        0.56540000      -0.35600000      -0.74310000
H        0.50630000      -0.07270000       1.01020000
H       -1.94960000       0.25270000       0.86450000
H       -1.99470000       0.97240000      -1.51480000
H       -1.66030000      -0.68080000      -2.03270000
H       -3.82790000      -1.46490000      -1.01720000
H       -4.12190000       0.18020000      -0.41520000
H       -4.18580000       1.03990000      -2.80830000
H       -1.48330000      -3.93630000       1.03530000
