23
Properties=species:S:1:pos:R:3 gdb_116502=T pbc="F F F"
C       -0.13800000       1.52080000      -0.05790000
C       -0.02710000      -0.00270000       0.00530000
C        0.77710000      -0.49390000       1.20280000
O        0.10400000      -0.09790000       2.37540000
C        0.88110000       0.17640000       3.53310000
C        1.97830000      -0.85310000       3.85300000
C        1.63500000      -2.29040000       3.43530000
C        1.80460000      -2.53180000       1.93030000
O        0.84800000      -1.89540000       1.10300000
H        0.84840000       1.99120000      -0.14530000
H       -0.72960000       1.83290000      -0.92350000
H       -0.61800000       1.90990000       0.84360000
H       -1.02060000      -0.45910000       0.07390000
H        0.44670000      -0.39830000      -0.89870000
H        1.79630000      -0.06400000       1.18970000
H        1.32690000       1.18090000       3.46350000
H        0.14910000       0.20420000       4.34700000
H        2.92020000      -0.56580000       3.36910000
H        2.17080000      -0.80490000       4.93130000
H        2.30940000      -2.98400000       3.95270000
H        0.61300000      -2.55020000       3.73320000
H        2.82280000      -2.22480000       1.63240000
H        1.70620000      -3.59910000       1.70910000
