16
Properties=species:S:1:pos:R:3 gdb_31752=T pbc="F F F"
C       -0.10470000       1.37550000       0.00940000
O       -0.05440000      -0.05310000       0.00420000
C       -1.20990000      -0.70230000       0.01250000
N       -1.35190000      -1.98700000       0.01050000
C       -2.73670000      -2.15810000       0.02170000
C       -3.34330000      -3.51960000       0.02340000
O       -4.75330000      -3.37650000       0.03530000
C       -3.34840000      -0.95560000       0.02990000
O       -2.35390000       0.01400000       0.02380000
H        0.93460000       1.70320000       0.00160000
H       -0.62340000       1.75370000      -0.87660000
H       -0.60810000       1.74760000       0.90680000
H       -2.99370000      -4.07080000      -0.86450000
H       -2.97930000      -4.07500000       0.90290000
H       -5.14280000      -4.25490000       0.03650000
H       -4.36460000      -0.60950000       0.03930000
