22
Properties=species:S:1:pos:R:3 gdb_59541=T pbc="F F F"
C        0.05790000       1.54710000      -0.04790000
C        0.00560000       0.02220000       0.05210000
O        0.70120000      -0.44220000       1.20870000
C       -1.42130000      -0.52560000       0.02400000
C       -2.11530000      -0.48070000      -1.37590000
C       -2.14560000      -2.02160000      -1.38730000
C       -1.47860000      -2.06800000      -0.02970000
N       -2.80780000      -2.59460000      -0.23880000
C       -4.00070000      -2.02210000       0.36340000
H        1.09460000       1.89240000      -0.01300000
H       -0.39750000       1.90550000      -0.97640000
H       -0.48460000       2.00720000       0.78770000
H        0.56310000      -0.41370000      -0.78710000
H        0.26810000      -0.06170000       1.98120000
H       -1.98900000      -0.07080000       0.84760000
H       -3.07760000       0.03450000      -1.44930000
H       -1.45090000      -0.08140000      -2.14710000
H       -1.99660000      -2.64770000      -2.26090000
H       -0.70750000      -2.72480000       0.35690000
H       -4.03110000      -0.92380000       0.40200000
H       -4.87500000      -2.36370000      -0.19960000
H       -4.09110000      -2.39850000       1.38730000
