11
Properties=species:S:1:pos:R:3 gdb_923=T pbc="F F F"
O       -0.05010000      -0.08350000       0.00370000
C        0.02330000       1.12890000       0.00900000
N       -1.15510000       1.91880000       0.02860000
C       -1.16230000       3.27300000       0.03560000
N       -0.09560000       4.00940000       0.02510000
C        1.09410000       3.31920000       0.00570000
C        1.20660000       1.96460000      -0.00260000
H       -2.02330000       1.39890000       0.03750000
H       -2.14280000       3.74310000       0.05100000
H        1.98310000       3.94390000      -0.00300000
H        2.16800000       1.46730000      -0.01800000
