17
Properties=species:S:1:pos:R:3 gdb_17438=T pbc="F F F"
C       -0.05430000       1.61810000      -0.08880000
C        0.07070000       0.11170000       0.04230000
N        1.10450000      -0.58340000      -0.80530000
C        2.35160000      -0.63520000       0.04670000
C        2.09490000       0.03260000       1.39650000
C        0.66970000      -0.56930000       1.28280000
O       -0.14870000      -0.76060000       2.37720000
C        1.27140000      -1.62680000       0.23920000
H        0.89820000       2.13140000       0.06520000
H       -0.41140000       1.87660000      -1.09070000
H       -0.77630000       2.00380000       0.63860000
H       -0.88590000      -0.36670000      -0.19460000
H        3.28790000      -0.73620000      -0.48520000
H        2.67170000      -0.47180000       2.17950000
H        2.19880000       1.11620000       1.50500000
H        0.38260000      -1.07510000       3.11610000
H        1.18220000      -2.69140000       0.06650000
