19
Properties=species:S:1:pos:R:3 gdb_40748=T pbc="F F F"
C        0.00800000       1.47580000      -0.03220000
N        1.16310000       0.56830000      -0.13740000
C       -0.19000000       0.00650000       0.02710000
C       -0.43870000      -0.70840000       1.32330000
N       -1.88110000      -0.89040000       1.68480000
C       -1.67660000      -2.33540000       1.95690000
C       -1.99860000      -3.18930000       0.72130000
O       -0.68370000      -2.92540000       0.16070000
C       -0.25320000      -2.24730000       1.35830000
H       -0.02260000       2.06720000       0.87960000
H       -0.33240000       2.00190000      -0.92020000
H        1.45540000       0.48710000      -1.10730000
H       -0.65340000      -0.46770000      -0.83370000
H        0.15740000      -0.23770000       2.11680000
H       -2.17080000      -0.35410000       2.49350000
H       -1.93810000      -2.70320000       2.94960000
H       -2.13100000      -4.26150000       0.91690000
H       -2.80860000      -2.81410000       0.08800000
H        0.67280000      -2.65770000       1.76540000
