13
Properties=species:S:1:pos:R:3 gdb_127352=T pbc="F F F"
C        0.00200000       1.47740000       0.01280000
N       -0.00870000       0.02740000       0.03500000
C       -0.10480000      -0.82620000      -1.03900000
N       -0.09570000      -2.12190000      -0.74020000
C        0.01250000      -2.09620000       0.61150000
C        0.06700000      -0.82150000       1.11680000
N        0.17520000      -0.87530000       2.46170000
N        0.19040000      -2.08600000       2.82570000
O        0.08240000      -2.96090000       1.60660000
H        0.93200000       1.86120000       0.44130000
H       -0.07720000       1.81230000      -1.02260000
H       -0.84210000       1.87650000       0.58190000
H       -0.18060000      -0.43350000      -2.04330000
