19
Properties=species:S:1:pos:R:3 gdb_101492=T pbc="F F F"
O       -0.36460000       1.42720000       0.19890000
C       -0.12430000       0.02450000       0.31040000
C       -1.46270000      -0.65140000       0.01480000
O       -1.97340000      -0.19650000      -1.22050000
C       -1.31780000      -2.17090000      -0.08800000
O       -0.64550000      -2.65150000       1.06740000
C       -1.40020000      -3.73770000       1.59230000
C       -2.81120000      -3.42080000       1.10620000
O       -2.56660000      -2.82900000      -0.16220000
H        0.48090000       1.88010000       0.14340000
H        0.62190000      -0.30480000      -0.42810000
H        0.22800000      -0.24910000       1.31160000
H       -2.16000000      -0.42690000       0.83930000
H       -1.78680000       0.75100000      -1.23890000
H       -0.76220000      -2.42090000      -1.00430000
H       -1.04240000      -4.69510000       1.18750000
H       -1.29230000      -3.74320000       2.67990000
H       -3.44270000      -4.30020000       0.95990000
H       -3.31930000      -2.72100000       1.78570000
