18
Properties=species:S:1:pos:R:3 gdb_88817=T pbc="F F F"
O       -0.17040000       0.97760000       1.53650000
C       -0.01870000       0.05720000       0.51510000
C       -0.61380000      -1.30610000       0.72340000
C       -1.21260000      -0.37170000      -0.31530000
N       -2.47150000       0.24610000      -0.07610000
C       -3.84870000      -0.25870000      -0.20430000
C       -4.33280000       1.18380000       0.11260000
C       -2.83600000       1.53930000       0.19040000
O       -2.18270000       2.53540000       0.41200000
H       -0.61500000       1.76370000       1.17210000
H        0.92480000       0.11250000      -0.02940000
H       -0.08460000      -2.18620000       0.37660000
H       -1.17570000      -1.42590000       1.64260000
H       -1.02450000      -0.61170000      -1.36060000
H       -4.09070000      -0.62420000      -1.20760000
H       -4.10760000      -1.02130000       0.53620000
H       -4.87170000       1.68930000      -0.69030000
H       -4.87300000       1.30730000       1.05250000
