21
Properties=species:S:1:pos:R:3 gdb_53677=T pbc="F F F"
C        0.07850000       1.51520000      -0.13790000
C        0.05740000       0.06280000      -0.03400000
C        0.04920000      -1.13820000       0.05290000
C        0.00430000      -2.59250000       0.15440000
C       -1.42420000      -3.16080000       0.04620000
C       -1.44210000      -4.69800000       0.15670000
C       -2.78360000      -5.26190000       0.05730000
C       -3.90180000      -5.70050000      -0.02790000
C       -5.25000000      -6.24140000      -0.12970000
H        0.67620000       1.84610000      -0.99470000
H       -0.93170000       1.92040000      -0.26490000
H        0.50690000       1.97410000       0.76020000
H        0.63130000      -3.03730000      -0.63080000
H        0.44910000      -2.91030000       1.10770000
H       -2.05000000      -2.73010000       0.83410000
H       -1.86750000      -2.85740000      -0.90730000
H       -0.80270000      -5.12480000      -0.62860000
H       -0.98490000      -4.99780000       1.10990000
H       -5.34250000      -6.92720000      -0.97920000
H       -5.52760000      -6.79590000       0.77380000
H       -5.98970000      -5.44480000      -0.26740000
