13
Properties=species:S:1:pos:R:3 gdb_132121=T pbc="F F F"
N        0.08040000       1.43790000       0.17170000
C        0.01990000       0.04350000       0.05170000
C       -1.12000000      -0.66910000      -0.02480000
F       -2.32840000      -0.13920000      -0.07900000
O       -1.16900000      -2.01020000      -0.05740000
C        0.01540000      -2.74610000      -0.01720000
N        0.02470000      -4.01290000      -0.03710000
C        1.22040000      -1.92260000       0.04160000
N        1.22240000      -0.63620000       0.07570000
H        0.94510000       1.79370000      -0.21580000
H       -0.71910000       1.91240000      -0.22620000
H       -0.91900000      -4.39680000      -0.08160000
H        2.16380000      -2.45990000       0.05400000
