13
Properties=species:S:1:pos:R:3 gdb_42500=T pbc="F F F"
O       -0.07610000      -0.09390000       0.00060000
C        0.00080000       1.10200000       0.00550000
C        1.28870000       1.90640000      -0.00190000
O        2.37730000       1.03350000      -0.01560000
C        3.61550000       1.71140000      -0.02320000
C        4.69920000       0.72680000      -0.03760000
N        5.58020000      -0.01860000      -0.04900000
C       -1.20740000       1.95650000       0.01980000
N       -2.13890000       2.64110000       0.03070000
H        1.26830000       2.57320000      -0.88330000
H        1.28370000       2.56460000       0.88610000
H        3.71370000       2.35900000      -0.90910000
H        3.72930000       2.35020000       0.86730000
