13
Properties=species:S:1:pos:R:3 gdb_12303=T pbc="F F F"
N        0.00630000       1.14050000       0.61780000
C        0.03370000       0.00680000       0.06180000
O        1.18700000      -0.58020000      -0.37200000
C        1.06700000      -1.81890000      -1.07410000
O        0.23670000      -2.70910000      -0.41110000
C       -1.11000000      -2.26600000      -0.45690000
C       -1.26180000      -0.78790000      -0.10260000
O       -2.34400000      -0.28320000       0.03070000
H        0.95060000       1.52980000       0.67520000
H        0.70530000      -1.61750000      -2.09640000
H        2.07090000      -2.24250000      -1.10130000
H       -1.54520000      -2.42170000      -1.45730000
H       -1.68250000      -2.86390000       0.25610000
