13
Properties=species:S:1:pos:R:3 gdb_23956=T pbc="F F F"
C        0.05880000      -1.21910000      -0.00430000
C        0.02560000      -0.01570000       0.00270000
C        0.00250000       1.39590000       0.01060000
C       -1.13900000       2.20240000       0.03090000
N       -0.72080000       3.51340000       0.03210000
C        0.64170000       3.56490000       0.01320000
C        1.12230000       2.27580000      -0.00040000
C       -2.50500000       1.85620000       0.04820000
N       -3.63500000       1.59680000       0.06270000
H        0.07580000      -2.28070000      -0.01020000
H       -1.34200000       4.30470000       0.04510000
H        1.16070000       4.50970000       0.01100000
H        2.15730000       1.97580000      -0.01660000
