19
Properties=species:S:1:pos:R:3 gdb_81288=T pbc="F F F"
C       -0.17050000       1.45920000      -0.04460000
C        0.04200000      -0.05020000      -0.03900000
C        1.27930000      -0.57480000      -0.82280000
C        2.11720000      -0.40510000       0.46880000
C        0.77190000      -0.61130000       1.23690000
C        0.50490000      -2.09490000       1.26660000
O        0.12460000      -2.71940000       2.22590000
C        0.76750000      -2.79510000      -0.07930000
O        1.12150000      -1.94210000      -1.16470000
H        0.73860000       2.01130000       0.21290000
H       -0.49510000       1.79660000      -1.03480000
H       -0.94460000       1.74330000       0.67550000
H       -0.89300000      -0.55410000      -0.30540000
H        1.58600000      -0.06760000      -1.73970000
H        2.92800000      -1.11790000       0.63750000
H        2.49970000       0.60900000       0.59080000
H        0.60730000      -0.14940000       2.21100000
H        1.56670000      -3.53040000       0.08640000
H       -0.13370000      -3.36000000      -0.34600000
