11
Properties=species:S:1:pos:R:3 gdb_12172=T pbc="F F F"
O       -0.01770000       1.28530000       0.28470000
C        0.08920000      -0.07170000      -0.00790000
C       -1.28340000      -0.75750000      -0.22430000
O       -0.88170000      -1.16300000      -1.57050000
C        0.31370000      -0.47570000      -1.48400000
O        1.12360000      -0.31080000      -2.33110000
C       -1.61690000      -1.89260000       0.62460000
N       -1.87650000      -2.77730000       1.32010000
H        0.86690000       1.66450000       0.33060000
H        0.74510000      -0.62110000       0.67870000
H       -2.10550000      -0.03950000      -0.26500000
