21
Properties=species:S:1:pos:R:3 gdb_79837=T pbc="F F F"
C       -0.15860000       1.58060000      -0.03790000
C        0.06980000       0.07220000      -0.02940000
C        0.76320000      -0.59640000      -1.21970000
C        2.27060000      -0.46810000      -1.07620000
O        2.81150000       0.57430000      -0.28790000
C        2.37340000       0.33200000       1.05730000
C        1.15770000      -0.57750000       0.90290000
C        1.57150000      -1.50930000      -0.27840000
C        1.80390000      -2.98950000      -0.25040000
H        0.76210000       2.12220000      -0.26710000
H       -0.90020000       1.84620000      -0.79970000
H       -0.54120000       1.93260000       0.92730000
H       -0.88010000      -0.44140000       0.15630000
H        0.30420000      -0.84230000      -2.17270000
H        2.89310000      -0.72870000      -1.92480000
H        3.17220000      -0.15730000       1.63670000
H        2.14680000       1.29650000       1.52270000
H        0.80660000      -1.02990000       1.83090000
H        0.91630000      -3.53160000       0.09640000
H        2.05150000      -3.36660000      -1.24830000
H        2.63430000      -3.25150000       0.41630000
