18
Properties=species:S:1:pos:R:3 gdb_108969=T pbc="F F F"
O       -0.00040000       1.41060000      -0.04380000
C       -0.01620000       0.00240000       0.09680000
C       -1.42540000      -0.48220000       0.10830000
C       -2.55610000       0.22070000       0.01290000
C       -3.70070000      -0.73060000       0.00800000
C       -3.66690000      -1.93670000      -0.89740000
C       -2.27650000      -2.29000000      -1.39570000
C       -1.79350000      -1.94760000       0.05400000
N       -3.24550000      -2.03370000       0.54790000
H        0.90950000       1.70980000       0.03760000
H        0.53560000      -0.49140000      -0.72410000
H        0.48160000      -0.31560000       1.03060000
H       -2.64470000       1.29390000      -0.07390000
H       -4.68240000      -0.41370000       0.34780000
H       -4.58870000      -2.38800000      -1.25370000
H       -2.20840000      -3.36280000      -1.58850000
H       -1.84440000      -1.73390000      -2.23330000
H       -1.11550000      -2.65030000       0.53960000
