18
Properties=species:S:1:pos:R:3 gdb_110077=T pbc="F F F"
C        0.24240000       1.51600000      -0.13410000
C       -0.17410000       0.05900000       0.09820000
C        0.60780000      -0.57730000       1.23120000
C        0.71060000      -2.07770000       1.44540000
C        0.07270000      -3.05170000       0.51680000
O       -0.50730000      -4.03480000       0.90450000
C        1.93820000      -1.26080000       1.00560000
C        2.45780000      -1.39880000      -0.32810000
N        2.88200000      -1.49030000      -1.40070000
H        1.29450000       1.58240000      -0.42770000
H       -0.35670000       1.96820000      -0.92910000
H        0.10560000       2.11690000       0.77160000
H       -1.24210000       0.00910000       0.34160000
H       -0.03860000      -0.50840000      -0.82740000
H        0.56590000      -0.01450000       2.16050000
H        0.72560000      -2.42560000       2.47250000
H        0.16470000      -2.82480000      -0.56520000
H        2.70800000      -1.13600000       1.75950000
