22
Properties=species:S:1:pos:R:3 gdb_62651=T pbc="F F F"
C       -0.13700000       1.58550000      -0.01590000
C       -0.05580000       0.06240000      -0.00050000
C       -1.39580000      -0.58690000      -0.33890000
C        1.19270000      -0.57950000      -0.63410000
C        2.14140000      -0.21710000       0.54550000
C        2.55480000      -1.67890000       0.63190000
N        1.08290000      -1.83470000       0.27420000
C        0.74570000      -0.58570000       1.15890000
C        0.36090000      -0.72890000       2.60230000
H        0.82040000       2.05720000       0.22440000
H       -0.44870000       1.94740000      -1.00240000
H       -0.87780000       1.94300000       0.70850000
H       -1.73370000      -0.28080000      -1.33580000
H       -1.32010000      -1.67590000      -0.31970000
H       -2.16970000      -0.27900000       0.37400000
H        1.46240000      -0.69470000      -1.68710000
H        2.73030000       0.69420000       0.69310000
H        3.22930000      -2.06860000      -0.13800000
H        2.81920000      -2.09450000       1.60990000
H        1.11480000      -1.28930000       3.16500000
H        0.25270000       0.25480000       3.07200000
H       -0.59280000      -1.25830000       2.69540000
