13
Properties=species:S:1:pos:R:3 gdb_6247=T pbc="F F F"
N        0.74060000       0.20250000      -0.60250000
C        0.03130000       0.09680000       0.54080000
O        0.13660000       0.80690000       1.52030000
N       -0.92000000      -0.95740000       0.56310000
C       -1.24030000      -1.89820000      -0.39240000
N       -0.66390000      -1.94590000      -1.54000000
C       -2.27430000      -2.81060000       0.02180000
C       -3.13630000      -3.58220000       0.34960000
H        1.42220000       0.93890000      -0.64950000
H        0.57410000      -0.44630000      -1.36480000
H       -1.41950000      -0.99100000       1.43780000
H       -1.03800000      -2.70630000      -2.09940000
H       -3.89760000      -4.26750000       0.63390000
