17
Properties=species:S:1:pos:R:3 gdb_67345=T pbc="F F F"
C       -0.06740000       1.53940000       0.02390000
C       -0.04300000       0.03610000       0.02440000
C        1.13030000      -0.77750000      -0.64460000
O        2.04890000      -0.43380000       0.44740000
C        0.77780000      -0.78270000       1.09310000
C        0.59540000      -2.00380000       0.14780000
C       -0.88080000      -2.21520000      -0.15230000
C       -1.31450000      -0.74150000      -0.23590000
O       -2.41220000      -0.30050000      -0.45740000
H        0.93170000       1.93190000       0.22760000
H       -0.41010000       1.92010000      -0.94310000
H       -0.76010000       1.91500000       0.78310000
H        1.49950000      -0.70750000      -1.66880000
H        0.71850000      -0.71890000       2.18060000
H        1.26890000      -2.84760000       0.28200000
H       -1.07420000      -2.73630000      -1.09570000
H       -1.42600000      -2.74150000       0.63800000
