21
Properties=species:S:1:pos:R:3 gdb_59803=T pbc="F F F"
C       -0.18000000       1.40860000      -0.03200000
C       -0.06640000      -0.11620000       0.10090000
C        0.57800000      -0.51600000       1.43220000
N       -1.40240000      -0.70560000       0.02960000
C       -1.77690000      -1.29690000      -1.01990000
N       -1.26580000      -1.60760000      -2.27870000
C       -2.27490000      -2.66070000      -2.52470000
C       -3.03780000      -2.11950000      -1.27460000
O       -3.34520000      -3.05390000      -0.27530000
H        0.80380000       1.88150000       0.05540000
H       -0.61140000       1.68570000      -0.99840000
H       -0.82850000       1.80660000       0.75470000
H        0.58200000      -0.48140000      -0.71470000
H        1.57950000      -0.08400000       1.52780000
H       -0.03540000      -0.16340000       2.26740000
H        0.66290000      -1.60380000       1.51300000
H       -0.28950000      -1.65370000      -2.53340000
H       -2.77460000      -2.58330000      -3.49370000
H       -1.91640000      -3.68120000      -2.35780000
H       -3.91490000      -1.51690000      -1.54370000
H       -2.98560000      -2.69330000       0.54510000
