20
Properties=species:S:1:pos:R:3 gdb_82315=T pbc="F F F"
C       -0.75160000       1.22130000      -0.03990000
C        0.02620000      -0.09310000      -0.08020000
C        1.06110000      -0.20430000      -1.18960000
C        2.37460000       0.46270000      -0.99110000
N        2.24010000      -0.98100000      -0.73880000
C        2.01910000      -1.29690000       0.68150000
C        0.84930000      -0.43530000       1.16790000
C        0.90550000       0.38100000       2.38900000
O        0.16200000      -0.84280000       2.34590000
H       -0.08060000       2.08040000       0.05780000
H       -1.33400000       1.35460000      -0.95690000
H       -1.45320000       1.23160000       0.80060000
H       -0.69150000      -0.91560000      -0.20980000
H        0.71070000      -0.40950000      -2.19740000
H        2.98800000       0.71480000      -1.85100000
H        2.49460000       1.13150000      -0.14120000
H        1.74270000      -2.35480000       0.75950000
H        2.93490000      -1.14540000       1.26080000
H        1.80460000       0.35840000       3.00490000
H        0.30710000       1.28520000       2.48090000
