23
Properties=species:S:1:pos:R:3 gdb_120971=T pbc="F F F"
O       -0.09480000       1.46940000      -0.07430000
C        0.02360000       0.05670000       0.01990000
C       -1.38080000      -0.53320000      -0.01150000
C       -1.41210000      -2.06210000       0.02330000
C       -0.85740000      -2.71130000       1.32060000
C       -1.55750000      -4.06730000       1.42730000
C       -2.94380000      -4.08970000       2.01960000
C       -2.77530000      -4.03800000       0.52240000
C       -2.83270000      -2.66290000      -0.14330000
H        0.78800000       1.84820000      -0.03230000
H        0.61420000      -0.34930000      -0.81870000
H        0.53710000      -0.23540000       0.94960000
H       -1.94910000      -0.13080000       0.83740000
H       -1.87840000      -0.16990000      -0.91920000
H       -0.80470000      -2.44240000      -0.81040000
H        0.23010000      -2.82470000       1.28450000
H       -1.07870000      -2.07990000       2.19180000
H       -0.95000000      -4.96110000       1.51550000
H       -3.29180000      -5.01890000       2.45930000
H       -3.30110000      -3.19750000       2.52760000
H       -3.06090000      -4.90980000      -0.05540000
H       -3.58000000      -2.01910000       0.33880000
H       -3.11380000      -2.73210000      -1.19840000
