19
Properties=species:S:1:pos:R:3 gdb_58213=T pbc="F F F"
C       -0.00670000       1.58320000      -0.09810000
C        0.01100000       0.06470000       0.03530000
O        0.74620000      -0.24500000       1.19890000
C       -1.42190000      -0.51730000       0.07910000
O       -2.20910000      -0.07730000      -1.01100000
C       -1.42890000      -2.07330000       0.11260000
N       -0.74260000      -2.60000000       1.30200000
C       -2.80700000      -2.58930000      -0.01390000
N       -3.86740000      -3.04790000      -0.04800000
H        1.02050000       1.95440000      -0.13800000
H       -0.53940000       1.90040000      -0.99640000
H       -0.49610000       2.02840000       0.77390000
H        0.50150000      -0.36490000      -0.86390000
H        0.61130000      -1.19000000       1.38030000
H       -1.92300000      -0.14430000       0.98040000
H       -1.72600000      -0.25270000      -1.82740000
H       -0.86750000      -2.41900000      -0.76580000
H       -1.29380000      -2.40590000       2.13410000
H       -0.65170000      -3.60940000       1.23950000
