17
Properties=species:S:1:pos:R:3 gdb_126985=T pbc="F F F"
C       -0.01090000       1.48800000       0.04720000
C        0.02560000      -0.02720000       0.01810000
O       -1.33560000      -0.49040000       0.02070000
C       -1.51240000      -1.81780000      -0.00270000
C       -2.69870000      -2.49580000      -0.00480000
C       -4.11690000      -2.06370000       0.01600000
O       -2.39360000      -3.80210000      -0.03210000
N       -0.98790000      -3.91380000      -0.04680000
N       -0.50360000      -2.74120000      -0.02910000
H        1.00920000       1.88270000       0.04610000
H       -0.53520000       1.88100000      -0.82830000
H       -0.52030000       1.84730000       0.94560000
H        0.53370000      -0.40330000      -0.87740000
H        0.54840000      -0.43690000       0.89020000
H       -4.65380000      -2.41800000      -0.87030000
H       -4.63820000      -2.45170000       0.89740000
H       -4.16080000      -0.97290000       0.03720000
