21
Properties=species:S:1:pos:R:3 gdb_116463=T pbc="F F F"
C        0.05890000       1.38390000       0.09560000
O       -0.13690000       0.00100000      -0.08400000
C        0.58900000      -0.56510000      -1.15320000
C        2.09350000      -0.71050000      -0.86920000
C        2.76830000      -1.50200000      -1.99620000
O        2.12580000      -2.74940000      -2.23220000
C        0.76740000      -2.57330000      -2.61750000
C       -0.01050000      -1.95030000      -1.45460000
O        0.03610000      -2.81200000      -0.33050000
H        1.08220000       1.63170000       0.41400000
H       -0.16120000       1.95020000      -0.82390000
H       -0.63190000       1.70550000       0.87890000
H        0.45520000       0.05650000      -2.05840000
H        2.57810000       0.26670000      -0.77280000
H        2.21520000      -1.23480000       0.08480000
H        2.77020000      -0.90880000      -2.92640000
H        3.80680000      -1.73610000      -1.74680000
H        0.69860000      -1.95130000      -3.52460000
H        0.37740000      -3.56930000      -2.84300000
H       -1.06730000      -1.82860000      -1.71590000
H        0.91030000      -3.22100000      -0.33840000
