16
Properties=species:S:1:pos:R:3 gdb_45569=T pbc="F F F"
O        0.10690000      -0.05420000      -0.15420000
C        0.02640000       1.13590000      -0.04330000
N       -1.10160000       1.89690000       0.14000000
C       -0.86070000       3.31880000       0.12670000
C       -1.16580000       4.02650000       1.46040000
C        0.13460000       3.81350000       2.24090000
O        1.15920000       3.91530000       1.24440000
C        0.70190000       3.34590000       0.06130000
O        1.10570000       1.98100000      -0.07720000
H       -2.00640000       1.47280000       0.03260000
H       -1.32910000       3.81220000      -0.73040000
H       -1.33240000       5.09370000       1.28570000
H       -2.04580000       3.61200000       1.95690000
H        0.33350000       4.57810000       2.99390000
H        0.16120000       2.82760000       2.72310000
H        1.14100000       3.89870000      -0.77070000
