27
Properties=species:S:1:pos:R:3 gdb_58415=T pbc="F F F"
C       -0.39590000       1.40090000       0.05600000
C        0.19130000      -0.00760000      -0.14090000
C        1.19570000      -0.01730000      -1.30650000
C        0.79440000      -0.57150000       1.15060000
C        1.97300000       0.21150000       1.71370000
C       -0.10920000      -1.22690000       2.18640000
C       -1.61640000      -1.33800000       2.07160000
C        0.84660000      -2.07770000       1.36870000
C        0.37730000      -3.11280000       0.36590000
H        0.38530000       2.13620000       0.27580000
H       -0.90890000       1.73430000      -0.85250000
H       -1.11750000       1.42360000       0.87820000
H       -0.63920000      -0.65710000      -0.43500000
H        2.02620000       0.67400000      -1.12870000
H        1.61820000      -1.01420000      -1.46390000
H        0.70840000       0.29350000      -2.23690000
H        1.69800000       1.24230000       1.96310000
H        2.34210000      -0.25670000       2.63140000
H        2.81160000       0.25170000       1.00980000
H        0.20780000      -1.05850000       3.21410000
H       -1.96130000      -1.50220000       1.04840000
H       -1.98640000      -2.17460000       2.67550000
H       -2.10680000      -0.42960000       2.43940000
H        1.72780000      -2.41160000       1.91370000
H       -0.50260000      -2.79910000      -0.19990000
H        1.16600000      -3.34370000      -0.35900000
H        0.11810000      -4.04890000       0.87380000
