18
Properties=species:S:1:pos:R:3 gdb_45468=T pbc="F F F"
O       -0.00940000      -0.12830000      -0.11390000
C        0.00240000       1.08760000      -0.03750000
C       -1.31780000       1.87870000       0.11380000
C       -1.22390000       3.24320000      -0.55670000
C       -1.97660000       4.46840000       0.04540000
C       -0.59100000       5.10870000       0.35120000
N        0.04910000       3.93100000      -0.26380000
C        1.16700000       3.24690000       0.07700000
C        1.21870000       1.88740000       0.04740000
H       -2.13540000       1.28060000      -0.29370000
H       -1.49560000       1.98920000       1.19260000
H       -1.35740000       3.13270000      -1.64080000
H       -2.59430000       5.02270000      -0.66180000
H       -2.56780000       4.23450000       0.93190000
H       -0.37130000       6.04610000      -0.17050000
H       -0.36650000       5.23530000       1.41560000
H        2.03390000       3.85560000       0.32740000
H        2.15900000       1.36500000       0.16850000
