20
Properties=species:S:1:pos:R:3 gdb_101562=T pbc="F F F"
C        0.04540000       1.53370000      -0.08390000
C        0.08130000       0.01320000      -0.00660000
C        0.67240000      -0.52280000       1.29500000
O       -0.03560000      -0.07880000       2.43610000
O       -1.27730000      -0.51430000      -0.03730000
C       -1.84840000      -0.70050000      -1.24370000
O       -1.31070000      -0.46550000      -2.29670000
C       -3.26460000      -1.25380000      -1.09530000
N       -3.97290000      -1.48520000      -2.34030000
H        1.06680000       1.92740000      -0.08820000
H       -0.44870000       1.85810000      -1.00190000
H       -0.47680000       1.94560000       0.78270000
H        0.62080000      -0.40130000      -0.86310000
H        0.70800000      -1.62190000       1.24590000
H        1.69980000      -0.15920000       1.40000000
H       -0.94890000      -0.36340000       2.31920000
H       -3.20190000      -2.18650000      -0.52200000
H       -3.83250000      -0.55880000      -0.46560000
H       -4.01540000      -0.61510000      -2.86390000
H       -3.42220000      -2.10980000      -2.92320000
