22
Properties=species:S:1:pos:R:3 gdb_15418=T pbc="F F F"
C       -0.41040000       1.50640000       0.27250000
C        0.19020000       0.14410000      -0.09510000
C        0.89280000      -0.51270000       1.07670000
C        0.13150000      -1.35280000       2.07580000
C        1.15500000      -1.99920000       1.16710000
C        0.74130000      -2.98270000       0.09270000
C        0.61710000      -4.40430000       0.63130000
O        0.24090000      -5.24920000      -0.44660000
H        0.36440000       2.19850000       0.62090000
H       -0.90620000       1.96750000      -0.58760000
H       -1.14850000       1.40680000       1.07520000
H       -0.60390000      -0.50970000      -0.47210000
H        0.89920000       0.27050000      -0.92420000
H        1.67930000       0.10790000       1.50220000
H        0.34960000      -1.25110000       3.13350000
H       -0.91490000      -1.54940000       1.85790000
H        2.09680000      -2.25930000       1.64690000
H       -0.22070000      -2.70180000      -0.34820000
H        1.47110000      -2.98720000      -0.72670000
H        1.57860000      -4.72070000       1.06870000
H       -0.13060000      -4.42790000       1.44020000
H        0.15600000      -6.14580000      -0.11000000
