13
Properties=species:S:1:pos:R:3 gdb_9567=T pbc="F F F"
C       -0.05720000       1.54550000      -0.07280000
C       -0.00440000       0.03520000       0.01840000
N        1.30780000      -0.59340000      -0.19480000
C        0.71170000      -0.67660000       1.14590000
C        1.35280000       0.07530000       2.19780000
N        1.84090000       0.67660000       3.05540000
C       -1.16620000      -0.66440000      -0.49290000
N       -2.08380000      -1.22200000      -0.92210000
H        0.85280000       1.97240000       0.35160000
H       -0.13510000       1.85330000      -1.11880000
H       -0.92240000       1.93370000       0.47090000
H        1.22250000      -1.48940000      -0.66950000
H        0.28890000      -1.62300000       1.47060000
