18
Properties=species:S:1:pos:R:3 gdb_48036=T pbc="F F F"
O       -0.13880000      -0.04490000       0.22200000
C       -0.04690000       1.15650000       0.11100000
C        1.19530000       1.88180000       0.07140000
C        2.21910000       2.52230000       0.04190000
C        3.46600000       3.27530000      -0.01550000
N        3.25040000       4.70620000      -0.10810000
C        2.68350000       5.26400000      -1.35550000
C        3.63480000       6.47480000      -1.19800000
C        4.44160000       5.57250000      -0.23370000
H       -0.94680000       1.80000000       0.02980000
H        4.04690000       3.06820000       0.89360000
H        4.06780000       2.88080000      -0.86130000
H        2.92710000       4.66090000      -2.24590000
H        1.60410000       5.43810000      -1.33190000
H        4.14510000       6.82780000      -2.09390000
H        3.16300000       7.31660000      -0.68900000
H        4.80120000       5.99880000       0.70820000
H        5.28390000       5.07610000      -0.74450000
