20
Properties=species:S:1:pos:R:3 gdb_93243=T pbc="F F F"
C       -0.09700000       1.54000000       0.01410000
C        0.01100000       0.01250000       0.03280000
C        0.74830000      -0.48430000      -1.20920000
O        0.96330000      -1.90960000      -1.23850000
C        1.36500000      -2.53200000      -0.10300000
N        2.11600000      -3.55150000      -0.10250000
C        0.78670000      -2.04650000       1.21800000
O        1.50270000      -2.57200000       2.30240000
C        0.73500000      -0.51910000       1.27450000
H        0.89440000       2.00670000       0.03340000
H       -0.61820000       1.89520000      -0.88120000
H       -0.64960000       1.89860000       0.88740000
H       -1.00270000      -0.41120000       0.01380000
H        0.19050000      -0.26620000      -2.12320000
H        1.72810000       0.00950000      -1.28270000
H        2.42270000      -3.79390000      -1.04460000
H       -0.25720000      -2.41490000       1.23090000
H        2.00830000      -3.31610000       1.93770000
H        1.75960000      -0.12700000       1.31730000
H        0.23170000      -0.20730000       2.19510000
