18
Properties=species:S:1:pos:R:3 gdb_89353=T pbc="F F F"
C       -0.19000000       1.53610000      -0.11190000
N        0.05540000       0.10600000      -0.00520000
C        1.11610000      -0.48430000      -0.87270000
C        1.82040000      -1.07060000       0.34320000
O        2.25910000      -2.36390000       0.31950000
C        2.16770000      -0.03490000       1.34040000
C        0.68500000      -0.39670000       1.20860000
C       -0.03990000      -1.07870000       2.27620000
O        0.49760000      -1.59350000       3.23660000
H        0.71030000       2.16180000       0.01850000
H       -0.61580000       1.75760000      -1.09560000
H       -0.92200000       1.83240000       0.64530000
H        0.71740000      -1.24700000      -1.54780000
H        1.70760000       0.24050000      -1.44730000
H        2.65440000      -2.58040000       1.17160000
H        2.59540000      -0.40920000       2.26650000
H        2.50870000       0.95350000       1.04160000
H       -1.13670000      -1.14370000       2.11010000
