21
Properties=species:S:1:pos:R:3 gdb_105179=T pbc="F F F"
C        0.13270000       1.42680000      -0.51640000
C        0.02310000       0.14070000       0.31070000
C       -1.36220000      -0.48090000       0.22480000
O       -1.69180000      -1.09070000      -1.04700000
C       -1.58900000      -1.94360000       0.09300000
C       -0.51710000      -3.00310000       0.08900000
C       -2.42230000       0.31160000       0.81260000
C       -3.28650000       0.98270000       1.31710000
C       -4.34040000       1.78580000       1.91930000
H        1.13690000       1.85370000      -0.43830000
H       -0.07170000       1.22120000      -1.57120000
H       -0.58520000       2.17700000      -0.17230000
H        0.76550000      -0.58210000      -0.03600000
H        0.24120000       0.34960000       1.36480000
H       -2.55770000      -2.29420000       0.45570000
H        0.43490000      -2.62810000      -0.28960000
H       -0.36610000      -3.39670000       1.10000000
H       -0.82730000      -3.83660000      -0.55040000
H       -5.31120000       1.28350000       1.84670000
H       -4.14080000       1.96950000       2.98080000
H       -4.43180000       2.75940000       1.42540000
