25
Properties=species:S:1:pos:R:3 gdb_60058=T pbc="F F F"
C       -0.11200000       1.60800000       0.08070000
C        0.04880000       0.08130000       0.05120000
C        0.87260000      -0.39680000       1.25530000
C       -1.33480000      -0.59260000      -0.03530000
C       -1.37350000      -2.12020000      -0.16320000
C       -0.52600000      -2.65540000      -1.31860000
C       -1.21790000      -2.96340000       1.13390000
O       -2.47090000      -3.63580000       0.90450000
C       -2.80220000      -2.72840000      -0.16380000
H        0.86210000       2.10800000       0.09560000
H       -0.66200000       1.96980000      -0.79440000
H       -0.66210000       1.92750000       0.97410000
H        0.60760000      -0.17180000      -0.85970000
H        0.34980000      -0.19110000       2.19700000
H        1.07870000      -1.47080000       1.21570000
H        1.83730000       0.12000000       1.29490000
H       -1.92390000      -0.30090000       0.84590000
H       -1.86500000      -0.17210000      -0.90200000
H        0.54090000      -2.46530000      -1.16420000
H       -0.65840000      -3.73740000      -1.42000000
H       -0.81560000      -2.18940000      -2.26760000
H       -0.37480000      -3.66460000       1.16930000
H       -1.23610000      -2.37970000       2.06400000
H       -3.59420000      -2.02400000       0.12890000
H       -3.11210000      -3.25540000      -1.07470000
