20
Properties=species:S:1:pos:R:3 gdb_103228=T pbc="F F F"
C       -0.18150000       1.66110000      -0.14030000
C       -0.08200000       0.13850000      -0.16640000
C       -1.27230000      -0.51340000       0.54170000
O       -1.30420000      -0.16030000       1.91070000
C        0.53400000      -0.77970000      -1.16040000
C        1.87550000      -0.41790000      -1.82020000
C        2.41460000       0.92330000      -1.41950000
C        2.40720000      -0.21000000      -0.42140000
N        1.11500000      -0.66080000       0.23410000
H       -0.34390000       2.08490000      -1.13530000
H       -1.02460000       1.94100000       0.49580000
H        0.70500000       2.12390000       0.29570000
H       -2.20960000      -0.15410000       0.10290000
H       -1.22750000      -1.60400000       0.41370000
H       -0.45140000      -0.43840000       2.26730000
H        0.02390000      -1.69480000      -1.45260000
H        2.28630000      -1.00850000      -2.62800000
H        3.41630000       1.10370000      -1.80220000
H        1.81230000       1.81560000      -1.36350000
H        3.31640000      -0.56960000       0.04280000
