21
Properties=species:S:1:pos:R:3 gdb_83238=T pbc="F F F"
C       -0.05920000       1.50200000      -0.04020000
C        0.06510000       0.00430000      -0.04080000
C       -0.03240000      -0.72620000      -1.15970000
C        0.05000000      -2.20780000      -1.17300000
C        1.41300000      -2.86830000      -1.19490000
O        2.57710000      -2.10390000      -1.27260000
C        0.58950000      -2.88620000       0.07750000
C        1.02610000      -1.99120000       1.23190000
C        0.24420000      -0.66640000       1.30770000
H        0.84650000       1.97690000       0.35850000
H       -0.24150000       1.89690000      -1.04340000
H       -0.88460000       1.82340000       0.60870000
H       -0.19340000      -0.22760000      -2.11430000
H       -0.73620000      -2.71390000      -1.72750000
H        1.52090000      -3.79660000      -1.74760000
H        2.31310000      -1.17480000      -1.28720000
H        0.13720000      -3.83510000       0.34760000
H        0.92540000      -2.53180000       2.17770000
H        2.09210000      -1.76360000       1.11370000
H        0.74920000       0.02040000       1.99790000
H       -0.75240000      -0.83890000       1.74070000
