14
Properties=species:S:1:pos:R:3 gdb_128494=T pbc="F F F"
C       -0.03830000       1.41370000       0.00960000
O       -0.00210000      -0.01030000       0.00500000
C       -1.16580000      -0.65700000       0.01220000
C       -1.36930000      -2.03500000       0.01020000
C       -2.78510000      -2.17010000       0.02070000
N       -3.40380000      -1.00560000       0.02790000
N       -2.39170000      -0.08750000       0.02270000
C       -0.38140000      -3.04190000       0.00030000
N        0.42040000      -3.87840000      -0.00770000
H        1.00060000       1.74110000       0.00280000
H       -0.54530000       1.79830000      -0.88390000
H       -0.53200000       1.79290000       0.91280000
H       -3.35120000      -3.08930000       0.02270000
H       -2.62420000       0.89020000       0.02690000
