19
Properties=species:S:1:pos:R:3 gdb_72730=T pbc="F F F"
O        0.20590000       1.36960000       0.15010000
C        0.09470000      -0.03010000      -0.00350000
C        0.16670000      -0.44460000      -1.52330000
C       -1.43110000      -0.37790000      -1.50120000
C       -1.30100000      -0.64180000       0.01550000
C       -1.42070000      -0.23040000       1.50440000
C        0.13780000      -0.65590000       1.44610000
C       -0.00720000      -2.13310000       1.14620000
O       -1.01430000      -2.06430000       0.11420000
H       -0.05840000       1.79610000      -0.67200000
H        0.69270000       0.26430000      -2.16960000
H        0.52440000      -1.45160000      -1.72460000
H       -1.79530000       0.62620000      -1.73340000
H       -1.98600000      -1.11000000      -2.09000000
H       -1.53590000       0.83730000       1.66690000
H       -2.07440000      -0.81880000       2.15260000
H        0.85460000      -0.33190000       2.20040000
H        0.90510000      -2.59980000       0.75520000
H       -0.37140000      -2.72170000       1.99690000
