15
Properties=species:S:1:pos:R:3 gdb_75694=T pbc="F F F"
C       -0.27660000       1.49800000       0.00410000
C       -0.00560000      -0.01870000       0.00300000
C        0.83770000      -0.48700000      -1.19200000
O        0.45830000      -0.62500000      -2.32480000
C        2.22800000      -0.80840000      -0.68640000
O        2.74120000       0.29350000       0.07390000
C        2.19060000      -0.81620000       0.79590000
C        0.77640000      -0.49960000       1.23410000
O        0.34050000      -0.64930000       2.34480000
H        0.65920000       2.06030000       0.03070000
H       -0.82830000       1.77590000      -0.89760000
H       -0.87330000       1.76660000       0.87950000
H       -0.96250000      -0.55100000      -0.02390000
H        2.94100000      -1.37360000      -1.27810000
H        2.87300000      -1.38770000       1.41700000
