16
Properties=species:S:1:pos:R:3 gdb_69708=T pbc="F F F"
C        0.06370000       1.51500000       0.02670000
C       -0.07990000       0.02390000      -0.03040000
C       -0.93130000      -0.78070000       0.86270000
N        0.53630000      -0.90940000       1.02420000
C        1.07670000      -1.76840000      -0.11530000
C        0.49730000      -0.83740000      -1.17130000
O       -0.36780000      -1.90320000      -1.67460000
C        0.13950000      -2.80920000      -0.75210000
O       -0.15410000      -3.95210000      -0.63090000
H        1.06800000       1.83120000      -0.27490000
H       -0.65890000       1.99640000      -0.64230000
H       -0.11430000       1.87920000       1.04200000
H       -1.37740000      -0.25720000       1.70290000
H       -1.52260000      -1.61070000       0.48880000
H        2.12550000      -2.01970000       0.02060000
H        1.05330000      -0.34760000      -1.96740000
