18
Properties=species:S:1:pos:R:3 gdb_50265=T pbc="F F F"
O       -0.03880000      -0.02390000       0.26670000
C        0.01970000       1.18550000       0.18060000
N        1.16290000       1.90400000       0.01570000
C        2.44540000       1.20490000      -0.11880000
C        3.38200000       2.07720000      -0.94610000
C        2.62330000       2.80850000      -2.07300000
C        2.34320000       3.80280000      -0.92840000
C        1.14890000       3.36490000      -0.08340000
O        3.54290000       3.34600000      -0.24280000
H       -0.87600000       1.83780000       0.21990000
H        2.89940000       1.01840000       0.86300000
H        2.25060000       0.23780000      -0.58980000
H        4.33700000       1.58980000      -1.15300000
H        3.30100000       3.22650000      -2.81730000
H        1.78130000       2.30360000      -2.54990000
H        2.34980000       4.87880000      -1.11700000
H        0.20300000       3.68460000      -0.53440000
H        1.23820000       3.83860000       0.90390000
