14
Properties=species:S:1:pos:R:3 gdb_11778=T pbc="F F F"
O       -0.05130000      -0.04680000       0.22820000
C        0.01320000       1.12780000      -0.01710000
C        1.26850000       1.93960000      -0.00510000
C        1.61830000       2.95030000       1.14950000
C        3.00300000       2.62190000       0.51520000
O        2.51590000       1.25530000       0.29730000
C        2.85370000       3.23650000      -0.89000000
C        1.65270000       2.78400000      -1.25020000
H       -0.89170000       1.72820000      -0.27260000
H        1.23420000       3.96960000       1.08770000
H        1.48860000       2.50760000       2.13950000
H        3.94640000       2.68540000       1.05410000
H        3.55840000       3.86770000      -1.41050000
H        1.07050000       2.92310000      -2.14860000
