19
Properties=species:S:1:pos:R:3 gdb_55101=T pbc="F F F"
C        0.20340000       1.60630000      -0.50420000
C       -0.19590000       0.22890000      -0.00870000
O       -0.70250000       0.05860000       1.07710000
C        0.11260000      -0.93260000      -0.93520000
C        1.51200000      -1.61560000      -0.68730000
C        0.78740000      -2.95890000      -0.78970000
C        1.15290000      -4.12570000      -1.59340000
O        1.20130000      -4.15030000      -0.15750000
C       -0.57610000      -2.29130000      -0.62720000
H       -0.41330000       1.88040000      -1.36840000
H        0.06830000       2.34480000       0.28670000
H        1.24440000       1.60810000      -0.84640000
H        0.01530000      -0.62940000      -1.98080000
H        2.31120000      -1.40410000      -1.40070000
H        1.87290000      -1.43690000       0.32990000
H        0.37410000      -4.74060000      -2.04350000
H        2.12080000      -4.16300000      -2.09250000
H       -0.91800000      -2.30730000       0.41100000
H       -1.38500000      -2.61000000      -1.28770000
