19
Properties=species:S:1:pos:R:3 gdb_68319=T pbc="F F F"
C        0.11070000       1.36330000       0.15040000
C        0.06910000      -0.14210000       0.08920000
C        0.56390000      -1.09870000      -1.02700000
N        0.00300000      -2.09550000       0.00500000
C        0.71910000      -1.19100000       1.02690000
C       -1.16250000      -1.09440000       0.09580000
C       -2.11920000      -1.25040000       1.28280000
C       -3.12080000      -0.18600000       1.29400000
N       -3.89910000       0.66820000       1.28560000
H        1.14300000       1.72740000       0.11450000
H       -0.43360000       1.80440000      -0.69100000
H       -0.34670000       1.73480000       1.07330000
H        0.02660000      -1.10610000      -1.97980000
H        1.64230000      -1.19600000      -1.17510000
H        1.80730000      -1.29060000       0.99530000
H        0.36470000      -1.29140000       2.05420000
H       -1.75610000      -1.08870000      -0.82480000
H       -2.62890000      -2.21730000       1.19760000
H       -1.60510000      -1.24950000       2.24740000
