16
Properties=species:S:1:pos:R:3 gdb_9199=T pbc="F F F"
O        0.07720000       1.40130000       0.06940000
C       -0.01020000       0.00520000      -0.02580000
C       -1.47250000      -0.42710000       0.05070000
O       -2.37760000       0.36670000       0.11200000
C       -1.70120000      -1.93390000       0.04290000
C       -3.19350000      -2.29900000      -0.01340000
C       -3.41130000      -3.73960000       0.00430000
C       -3.56380000      -4.93180000       0.02000000
H        1.00450000       1.64750000       0.00480000
H        0.39620000      -0.38470000      -0.97600000
H        0.53750000      -0.51480000       0.77980000
H       -1.16190000      -2.38020000      -0.80170000
H       -1.23990000      -2.36200000       0.94230000
H       -3.70990000      -1.82510000       0.82810000
H       -3.63910000      -1.86070000      -0.91350000
H       -3.71830000      -5.98210000       0.03380000
