14
Properties=species:S:1:pos:R:3 gdb_44039=T pbc="F F F"
O       -0.07730000       0.07330000      -0.42330000
C       -0.01540000       1.21410000      -0.08570000
N       -0.97910000       2.17920000       0.21150000
C       -0.05880000       3.19660000       0.64040000
C        0.60580000       3.39080000       2.01700000
C        1.80640000       3.37000000       1.04620000
C        0.99940000       4.08290000      -0.12750000
O        1.30550000       3.10340000      -1.12730000
C        1.10190000       2.32030000       0.10020000
H       -1.98760000       2.11330000       0.18610000
H        0.40910000       4.32790000       2.54240000
H        0.54260000       2.54010000       2.70100000
H        2.87140000       3.47250000       1.25620000
H        0.98650000       5.13690000      -0.41550000
