14
Properties=species:S:1:pos:R:3 gdb_75674=T pbc="F F F"
O       -0.11440000       1.47930000      -0.08980000
C       -0.02510000       0.08440000      -0.00360000
C        0.22740000      -0.58980000       1.38480000
O        1.17900000      -0.61350000       2.10910000
C       -1.10060000      -1.28910000       1.36440000
C       -2.18380000      -0.24530000       1.16730000
C       -1.38150000      -0.63740000      -0.03490000
C       -1.93890000      -1.27450000      -1.18200000
N       -2.38120000      -1.79110000      -2.11810000
H        0.75600000       1.84760000       0.09960000
H        0.67010000      -0.34430000      -0.74070000
H       -1.33000000      -2.29280000       1.69800000
H       -3.19340000      -0.63770000       1.20880000
H       -2.06190000       0.75670000       1.56220000
