21
Properties=species:S:1:pos:R:3 gdb_78319=T pbc="F F F"
C       -0.04190000       1.43230000       0.01520000
C        0.06180000      -0.07950000       0.03790000
C        1.42210000      -0.67520000      -0.21290000
C        0.79830000      -0.69570000       1.19200000
C        0.78770000      -2.23820000       1.17390000
O        1.43790000      -2.72900000       2.30870000
C       -0.46130000      -2.99850000       0.62590000
C        0.15260000      -2.95410000      -0.81360000
C        1.41230000      -2.22140000      -0.26080000
H        0.86250000       1.89630000       0.42290000
H       -0.17530000       1.80370000      -1.00660000
H       -0.89160000       1.77960000       0.61290000
H       -0.82030000      -0.57910000      -0.35570000
H        2.23190000      -0.05750000      -0.58520000
H        1.06370000      -0.12870000       2.07710000
H        1.55170000      -3.67970000       2.20470000
H       -0.52520000      -4.01370000       1.03190000
H       -1.43260000      -2.51780000       0.76960000
H        0.37120000      -3.94330000      -1.22250000
H       -0.42540000      -2.40180000      -1.55780000
H        2.38650000      -2.67530000      -0.44610000
