24
Properties=species:S:1:pos:R:3 gdb_117336=T pbc="F F F"
C       -0.12540000       1.59750000       0.17010000
C       -0.18050000       0.09020000       0.42570000
C       -1.24670000      -0.61870000      -0.41660000
C       -1.17560000      -2.13840000      -0.27490000
O       -0.11330000      -2.73130000      -0.18220000
N       -2.38330000      -2.77550000      -0.27590000
C       -2.52890000      -4.22710000      -0.21840000
C       -3.42970000      -4.62920000       0.95430000
C       -3.03990000      -4.78190000      -1.55390000
H        0.64460000       2.07390000       0.78490000
H        0.10610000       1.81380000      -0.87910000
H       -1.08110000       2.08110000       0.40280000
H        0.78510000      -0.37480000       0.20740000
H       -0.37640000      -0.09980000       1.48830000
H       -2.24910000      -0.24790000      -0.16850000
H       -1.08440000      -0.38770000      -1.47860000
H       -3.21930000      -2.22080000      -0.37280000
H       -1.51580000      -4.59790000      -0.04210000
H       -4.44450000      -4.23210000       0.82730000
H       -3.50860000      -5.71840000       1.02460000
H       -3.03160000      -4.25030000       1.89960000
H       -2.36790000      -4.50510000      -2.37080000
H       -3.10760000      -5.87390000      -1.51890000
H       -4.03920000      -4.39380000      -1.78610000
