19
Properties=species:S:1:pos:R:3 gdb_99542=T pbc="F F F"
C       -0.09730000       1.60530000       0.00930000
C        0.03190000       0.08020000      -0.01870000
C        0.73060000      -0.50480000       1.22830000
C       -0.00710000      -0.13750000       2.43990000
N       -0.62360000       0.15340000       3.37360000
C        0.89930000      -2.07170000       1.15730000
N        1.60450000      -2.56940000      -0.02060000
C        1.57920000      -2.54910000       2.36160000
C        2.16930000      -2.90250000       3.34590000
H        0.88550000       2.08430000       0.07710000
H       -0.58230000       1.96560000      -0.90230000
H       -0.69270000       1.93780000       0.86410000
H       -0.95960000      -0.37860000      -0.11630000
H        0.61160000      -0.21840000      -0.89820000
H        1.73680000      -0.07320000       1.31030000
H       -0.11210000      -2.49830000       1.13160000
H        1.13140000      -2.29560000      -0.87440000
H        2.55290000      -2.20860000      -0.05240000
H        2.66980000      -3.22910000       4.22410000
