16
Properties=species:S:1:pos:R:3 gdb_66207=T pbc="F F F"
O       -0.05460000       1.38870000       0.04790000
C        0.03630000      -0.03270000      -0.03860000
C        0.75480000      -0.56440000       1.21830000
O        0.68140000      -1.98750000       1.31260000
C       -0.50850000      -2.52940000       0.94840000
N       -1.49790000      -1.98190000       0.38680000
C       -1.40490000      -0.58170000       0.00120000
C        0.74260000      -0.44410000      -1.25250000
C        1.35060000      -0.74520000      -2.24490000
H        0.73230000       1.76400000      -0.36170000
H        1.81580000      -0.30760000       1.21160000
H        0.27830000      -0.10920000       2.09440000
H       -0.52570000      -3.58620000       1.20610000
H       -1.97090000       0.03630000       0.70860000
H       -1.87600000      -0.45540000      -0.97760000
H        1.87530000      -1.02190000      -3.12640000
