15
Properties=species:S:1:pos:R:3 gdb_128424=T pbc="F F F"
C       -0.29010000       1.42410000       0.43720000
N       -0.27350000      -0.03480000       0.42290000
C       -1.11500000      -0.60140000      -0.62150000
C       -1.19140000      -2.08300000      -0.48610000
N       -0.72850000      -2.93180000      -1.32830000
O       -1.03800000      -4.19450000      -0.76250000
C       -1.68480000      -4.00660000       0.41770000
O       -2.09100000      -4.83810000       1.15640000
O       -1.78350000      -2.63730000       0.59790000
H        0.39910000       1.78250000       1.20590000
H       -0.01140000       1.89020000      -0.52370000
H       -1.29460000       1.77340000       0.70000000
H        0.67780000      -0.36670000       0.30170000
H       -2.12750000      -0.19500000      -0.50380000
H       -0.79100000      -0.38340000      -1.65290000
