22
Properties=species:S:1:pos:R:3 gdb_113357=T pbc="F F F"
C        0.47030000       1.42960000       0.10090000
C       -0.19340000       0.08160000      -0.21020000
C        0.49800000      -0.61830000      -1.35760000
N        1.69320000      -1.39880000      -1.06470000
C        0.50600000      -2.11920000      -1.56060000
C       -0.16990000      -3.11230000      -0.63540000
C        0.68960000      -4.36000000      -0.39480000
C        0.56140000      -2.50740000      -3.00320000
O        1.36740000      -2.06300000      -3.78830000
H        1.52040000       1.28630000       0.37320000
H        0.43510000       2.10020000      -0.76470000
H       -0.03240000       1.93150000       0.93280000
H       -0.16230000      -0.55110000       0.68120000
H       -1.25000000       0.23370000      -0.46460000
H        0.51510000      -0.04730000      -2.28640000
H        2.34800000      -1.32090000      -1.84400000
H       -0.39350000      -2.63520000       0.32150000
H       -1.13640000      -3.39710000      -1.07270000
H        0.19440000      -5.05170000       0.29290000
H        0.88470000      -4.90180000      -1.32720000
H        1.65410000      -4.07630000       0.03540000
H       -0.20660000      -3.24390000      -3.32580000
