17
Properties=species:S:1:pos:R:3 gdb_51339=T pbc="F F F"
O       -0.09640000       0.00430000       0.06210000
C       -0.02880000       1.19590000       0.10840000
O        1.07440000       1.88160000      -0.23850000
C        1.04660000       3.30960000      -0.16380000
C        2.19130000       4.00510000       0.54030000
C        3.31390000       4.19570000      -0.48570000
C        2.86070000       3.54080000      -1.79020000
C        1.44740000       4.08140000      -1.44190000
C        2.13340000       5.13240000      -0.47720000
H       -0.85690000       1.85380000       0.44040000
H        0.07680000       3.64280000       0.22240000
H        2.37100000       4.07840000       1.60430000
H        4.32250000       4.39960000      -0.15080000
H        3.27590000       4.06120000      -2.65690000
H        2.96860000       2.45890000      -1.90790000
H        0.71000000       4.28610000      -2.21430000
H        2.03010000       6.19820000      -0.34560000
