19
Properties=species:S:1:pos:R:3 gdb_91466=T pbc="F F F"
C       -0.09040000       1.51560000       0.01500000
C        0.03830000      -0.00350000       0.01020000
C        1.01670000      -0.58160000      -1.06950000
C        1.99140000      -1.31670000      -0.13530000
C        1.04780000      -2.06020000       0.84320000
C        0.77200000      -0.58570000       1.25590000
N        2.21230000      -0.24220000       0.91370000
C        0.26880000      -0.23470000       2.56630000
N       -0.14040000       0.03010000       3.61480000
H        0.89040000       1.97970000       0.14850000
H       -0.51220000       1.86690000      -0.93200000
H       -0.74770000       1.85570000       0.82180000
H       -0.95210000      -0.46210000      -0.06690000
H        0.52520000      -1.25470000      -1.77600000
H        1.51930000       0.21140000      -1.62720000
H        2.87530000      -1.78240000      -0.56860000
H        0.21820000      -2.65740000       0.45200000
H        1.58740000      -2.60710000       1.61930000
H        2.79790000      -0.64240000       1.64890000
