19
Properties=species:S:1:pos:R:3 gdb_6775=T pbc="F F F"
C       -0.00570000       1.49410000       0.04950000
C        0.09770000      -0.03200000      -0.00300000
C        0.70350000      -0.52810000      -1.30810000
O        0.75740000      -1.93990000      -1.27270000
C        1.28490000      -2.50050000      -2.43510000
C        1.17620000      -4.02820000      -2.35300000
N        2.00720000      -4.67790000      -3.22810000
O        0.39040000      -4.60360000      -1.63640000
H        0.97890000       1.96590000      -0.04340000
H       -0.63560000       1.88070000      -0.75930000
H       -0.44280000       1.82480000       0.99590000
H        0.71070000      -0.40190000       0.82660000
H       -0.89200000      -0.48710000       0.11360000
H        0.09710000      -0.19160000      -2.16770000
H        1.71560000      -0.10750000      -1.44690000
H        0.72980000      -2.17200000      -3.33270000
H        2.33750000      -2.20010000      -2.58910000
H        2.79070000      -4.21440000      -3.65520000
H        2.02150000      -5.68440000      -3.18790000
