15
Properties=species:S:1:pos:R:3 gdb_11365=T pbc="F F F"
C       -0.00910000       1.44660000       0.00810000
N       -0.01820000      -0.00710000       0.10110000
C       -1.21810000      -0.65780000       0.02890000
N       -2.37670000      -0.10450000       0.05280000
C       -3.34560000      -1.19720000       0.03870000
C       -2.54160000      -2.50470000      -0.00170000
O       -2.90730000      -3.65310000       0.00250000
N       -1.22390000      -2.05680000      -0.03770000
H        0.99960000       1.80540000       0.22310000
H       -0.32390000       1.81180000      -0.97780000
H       -0.69930000       1.85120000       0.74990000
H        0.75590000      -0.47840000      -0.34140000
H       -3.99110000      -1.18730000       0.92560000
H       -4.00780000      -1.13800000      -0.83350000
H       -0.42950000      -2.66910000       0.05530000
