18
Properties=species:S:1:pos:R:3 gdb_100624=T pbc="F F F"
C       -0.10690000       1.34860000      -0.06630000
O        0.03200000      -0.05450000       0.00350000
C        0.70600000      -0.52530000       1.15220000
C       -0.24330000      -0.69860000       2.33670000
C        1.34540000      -1.87530000       0.69900000
C        2.31120000      -1.68370000      -0.38310000
C        3.11480000      -1.52300000      -1.25930000
C        1.97120000      -2.57870000       1.82870000
N        2.45300000      -3.12080000       2.72760000
H        0.87160000       1.85050000      -0.04950000
H       -0.60270000       1.57070000      -1.01370000
H       -0.72060000       1.75090000       0.75240000
H        1.52510000       0.15860000       1.41960000
H        0.28600000      -1.06410000       3.22020000
H       -0.70420000       0.25930000       2.59210000
H       -1.04140000      -1.40400000       2.08490000
H        0.51650000      -2.49840000       0.33590000
H        3.82240000      -1.38460000      -2.03940000
