16
Properties=species:S:1:pos:R:3 gdb_112234=T pbc="F F F"
O       -0.18810000       1.46580000      -0.29570000
C        0.01820000       0.10050000       0.03840000
C       -1.35640000      -0.53830000       0.07570000
N       -2.02880000      -0.60380000      -1.22300000
C       -2.06940000      -1.96700000      -1.32610000
O       -2.45450000      -2.72620000      -2.16780000
C       -1.42700000      -2.10790000       0.10790000
C       -0.20110000      -2.86360000       0.21690000
C        0.81790000      -3.49670000       0.29680000
H        0.67050000       1.88580000      -0.40000000
H        0.64200000      -0.41220000      -0.70660000
H        0.50060000      -0.01430000       1.02110000
H       -1.96530000      -0.05490000       0.84700000
H       -2.26990000       0.12780000      -1.87450000
H       -2.17220000      -2.46600000       0.82430000
H        1.71240000      -4.06520000       0.36440000
