15
Properties=species:S:1:pos:R:3 gdb_31436=T pbc="F F F"
O        0.05200000       1.43880000       0.29160000
C        0.03910000       0.06470000      -0.02660000
C       -1.36730000      -0.47420000      -0.11020000
C       -1.82180000      -1.30360000      -1.06990000
C       -3.18210000      -1.79350000      -1.03890000
N       -3.70330000      -2.57860000      -1.88150000
O       -3.94150000      -1.31150000       0.05360000
C       -3.38370000      -0.47580000       0.94200000
N       -2.18630000      -0.03850000       0.93830000
H       -0.58040000       1.55040000       1.01350000
H        0.55290000      -0.06120000      -0.98370000
H        0.59000000      -0.52740000       0.72570000
H       -1.20360000      -1.63640000      -1.89370000
H       -4.67630000      -2.77940000      -1.65160000
H       -4.09340000      -0.19120000       1.71370000
