13
Properties=species:S:1:pos:R:3 gdb_129650=T pbc="F F F"
N        0.05450000       1.38100000       0.11390000
C       -0.02680000       0.02300000       0.04130000
C       -1.11630000      -0.81300000       0.01250000
N       -2.46410000      -0.38960000      -0.03210000
C       -0.50630000      -2.10200000       0.01190000
N        0.81320000      -2.05650000       0.02790000
O        1.10800000      -0.68450000       0.05980000
C       -1.19000000      -3.35120000      -0.02180000
N       -1.80910000      -4.32760000      -0.05050000
H        0.89370000       1.79570000      -0.26370000
H       -0.80260000       1.84400000      -0.15590000
H       -2.94130000      -0.52750000       0.85380000
H       -2.99410000      -0.88580000      -0.74090000
