19
Properties=species:S:1:pos:R:3 gdb_99230=T pbc="F F F"
C       -0.24450000       1.18370000       1.13410000
N        0.24060000      -0.17560000       1.25430000
C        0.98400000      -0.77200000       0.28920000
O        1.31790000      -0.24550000      -0.75760000
C        1.41310000      -2.20760000       0.57530000
O        0.92310000      -2.63980000       1.84880000
C        1.23310000      -3.90210000       2.22930000
C        0.64400000      -4.19380000       3.58500000
N        1.92640000      -4.65230000       1.47900000
H        0.10060000       1.57000000       0.17420000
H       -1.33940000       1.22040000       1.16180000
H        0.14630000       1.81910000       1.93690000
H        0.03080000      -0.71840000       2.07550000
H        1.03560000      -2.85830000      -0.21850000
H        2.50470000      -2.26660000       0.54740000
H       -0.44390000      -4.07780000       3.55760000
H        0.88560000      -5.20830000       3.90470000
H        1.02860000      -3.48520000       4.32500000
H        2.06800000      -5.56250000       1.91030000
