20
Properties=species:S:1:pos:R:3 gdb_93969=T pbc="F F F"
C       -0.10480000       1.56560000       0.00030000
C        0.03870000       0.04020000       0.02750000
C        0.79870000      -0.54800000      -1.18410000
C        1.47420000      -1.83350000      -0.66070000
C        1.62310000      -1.55920000       0.82020000
C        2.48480000      -2.33190000       1.67700000
O        3.16730000      -3.27610000       1.31850000
C        0.82150000      -0.52240000       1.20380000
N        0.58710000      -0.04060000       2.45700000
H        0.87480000       2.05540000       0.01860000
H       -0.61810000       1.87960000      -0.91360000
H       -0.69710000       1.94670000       0.84070000
H       -0.97130000      -0.39620000       0.07650000
H        0.14230000      -0.71750000      -2.04180000
H        1.56730000       0.16880000      -1.49670000
H        0.84650000      -2.71770000      -0.83710000
H        2.43430000      -2.03830000      -1.14230000
H        2.51650000      -2.00480000       2.74660000
H        1.18750000      -0.33120000       3.21180000
H        0.22340000       0.89390000       2.54330000
