20
Properties=species:S:1:pos:R:3 gdb_113106=T pbc="F F F"
C       -0.09200000       1.27710000      -0.20280000
O       -0.16020000      -0.00670000       0.37650000
C       -1.40310000      -0.64470000       0.18000000
C       -1.54800000      -1.31780000      -1.22060000
C       -1.00260000      -2.61640000      -0.59190000
C       -1.34720000      -2.05500000       0.81050000
O       -1.67140000      -3.79690000      -1.00070000
C       -0.97060000      -4.94660000      -1.01580000
N       -1.54980000      -6.03950000      -1.26650000
H        0.89620000       1.68330000       0.02560000
H       -0.21800000       1.24990000      -1.29550000
H       -0.85870000       1.94880000       0.21370000
H       -2.22410000       0.01440000       0.49230000
H       -2.59720000      -1.44480000      -1.49950000
H       -0.99800000      -0.88160000      -2.05690000
H        0.07770000      -2.72350000      -0.73590000
H       -0.62510000      -2.19220000       1.61730000
H       -2.33520000      -2.39780000       1.12640000
H        0.09980000      -4.80740000      -0.80680000
H       -0.87190000      -6.79860000      -1.25920000
