23
Properties=species:S:1:pos:R:3 gdb_105237=T pbc="F F F"
C        0.46200000      -0.30630000       1.25190000
O       -0.00790000      -0.05970000      -0.05610000
C        0.70530000      -0.56320000      -1.15120000
C        1.99060000      -1.35070000      -0.99640000
C        0.70810000      -2.04360000      -1.43210000
O        0.03730000      -2.85570000      -0.51290000
C        0.57860000       0.39090000      -2.33340000
C       -0.89330000       0.59160000      -2.72220000
C        1.27170000       1.72760000      -2.03560000
H        0.45820000      -1.37440000       1.49710000
H        1.47160000       0.09910000       1.40870000
H       -0.22870000       0.21230000       1.92190000
H        2.78470000      -1.18990000      -1.71900000
H        2.33450000      -1.58870000       0.00340000
H        0.62440000      -2.36220000      -2.47200000
H        0.52750000      -3.68110000      -0.43320000
H        1.09510000      -0.08430000      -3.17830000
H       -0.97800000       1.25150000      -3.59160000
H       -1.37070000      -0.36180000      -2.96990000
H       -1.45010000       1.03950000      -1.89490000
H        2.33270000       1.58440000      -1.80540000
H        1.19990000       2.40440000      -2.89290000
H        0.80240000       2.21490000      -1.17610000
