14
Properties=species:S:1:pos:R:3 gdb_1154=T pbc="F F F"
C       -0.01950000       1.54680000      -0.00440000
C       -0.00460000      -0.00480000       0.00490000
C        0.75630000      -0.53020000       1.25100000
C       -1.37920000      -0.52100000       0.00040000
C       -2.50940000      -0.92450000       0.03130000
C        0.69220000      -0.47890000      -1.20990000
N        1.26350000      -0.83300000      -2.14940000
H        1.00380000       1.93060000      -0.01170000
H       -0.54530000       1.92410000      -0.88340000
H       -0.53050000       1.90570000       0.89210000
H        0.24920000      -0.18170000       2.15390000
H        0.77910000      -1.62140000       1.25970000
H        1.78260000      -0.15420000       1.24850000
H       -3.50710000      -1.28910000       0.04450000
