15
Properties=species:S:1:pos:R:3 gdb_77289=T pbc="F F F"
O        0.11820000       1.48840000       0.03170000
C        0.13450000       0.12290000      -0.03260000
C       -0.13530000      -0.71710000       1.15630000
O       -0.33950000      -0.03320000       2.35770000
C       -1.25580000      -0.54730000       3.22180000
O       -1.41970000      -0.09810000       4.31090000
C       -1.20740000      -0.68240000       0.03740000
C       -2.43040000       0.11480000       0.18570000
O       -2.48950000       1.17500000       0.78230000
H       -0.63260000       1.75640000       0.59100000
H        0.85760000      -0.23810000      -0.75620000
H        0.38340000      -1.66640000       1.26270000
H       -1.80450000      -1.40730000       2.79590000
H       -1.29390000      -1.58330000      -0.55970000
H       -3.32970000      -0.29680000      -0.31500000
