17
Properties=species:S:1:pos:R:3 gdb_71048=T pbc="F F F"
O       -0.03560000       1.26180000       0.24820000
C        0.05110000      -0.10450000      -0.02000000
C        1.26430000      -0.94650000       0.58080000
C        0.90190000      -1.85800000      -0.59840000
C       -0.06730000      -2.75680000      -0.30920000
C       -1.36830000      -2.17290000      -0.70090000
C       -1.17810000      -1.00280000      -1.63110000
C       -1.40210000      -0.70530000      -0.16140000
C        0.31200000      -0.70280000      -1.43760000
H        0.83930000       1.64580000       0.12130000
H        2.18070000      -0.34560000       0.48540000
H        1.19940000      -1.37000000       1.58470000
H       -0.00040000      -3.44190000       0.53150000
H       -2.31210000      -2.70750000      -0.69000000
H       -1.80620000      -0.80040000      -2.48700000
H       -2.27480000      -0.30620000       0.33760000
H        0.93450000      -0.19830000      -2.17490000
