18
Properties=species:S:1:pos:R:3 gdb_61998=T pbc="F F F"
C       -0.12090000       0.78020000       1.49670000
C        0.04800000      -0.07090000       0.23050000
O        1.02510000      -1.09520000       0.34650000
C        2.36790000      -0.63740000       0.31230000
C        2.99610000      -0.41360000       1.69770000
C        2.66830000      -1.43420000       2.76480000
O        3.75060000       0.51410000       1.87360000
C       -1.21760000      -0.73820000      -0.11970000
N       -2.22880000      -1.22760000      -0.38570000
H        0.81270000       1.29980000       1.72730000
H       -0.90080000       1.53060000       1.34150000
H       -0.40460000       0.15250000       2.34450000
H        0.31070000       0.58920000      -0.61150000
H        2.94870000      -1.42300000      -0.18950000
H        2.47660000       0.28690000      -0.26800000
H        3.05440000      -2.41490000       2.46100000
H        3.12190000      -1.14010000       3.71140000
H        1.58690000      -1.55110000       2.87130000
