24
Properties=species:S:1:pos:R:3 gdb_118133=T pbc="F F F"
C       -0.03700000      -4.06450000       2.82360000
O        1.10640000      -3.94800000       2.01310000
C        0.79830000      -3.81100000       0.64220000
C        2.10260000      -3.72820000      -0.15590000
C        2.95120000      -4.99350000       0.03580000
C        1.77480000      -3.49610000      -1.62190000
C        1.46630000      -2.13530000      -2.15300000
N        2.67150000      -2.83780000      -2.57540000
C        3.95080000      -2.29960000      -2.13940000
H       -0.68740000      -3.17860000       2.74420000
H       -0.63640000      -4.95120000       2.56160000
H        0.30180000      -4.16100000       3.85810000
H        0.19640000      -4.67170000       0.29780000
H        0.19240000      -2.90480000       0.47500000
H        2.65450000      -2.86750000       0.23840000
H        3.91710000      -4.90360000      -0.46920000
H        3.12670000      -5.17860000       1.09760000
H        2.43850000      -5.86880000      -0.38120000
H        1.24920000      -4.33820000      -2.07560000
H        0.70330000      -1.98380000      -2.91270000
H        1.58430000      -1.30170000      -1.45940000
H        4.27140000      -1.54420000      -2.86420000
H        3.94040000      -1.82480000      -1.14570000
H        4.70050000      -3.09730000      -2.13180000
