21
Properties=species:S:1:pos:R:3 gdb_120894=T pbc="F F F"
C        0.47790000       1.28850000      -0.19890000
C        0.03220000      -0.10180000       0.22080000
O       -1.24930000      -0.34800000      -0.33060000
C       -1.75960000      -1.61440000      -0.02540000
C       -2.32490000      -1.85880000       1.41440000
C       -3.55210000      -2.47460000       0.73940000
C       -4.20890000      -3.75160000       1.01960000
O       -4.85620000      -2.49700000       1.28350000
C       -3.16980000      -1.86660000      -0.61110000
H        1.46880000       1.51070000       0.20820000
H        0.52420000       1.36340000      -1.28900000
H       -0.22500000       2.04260000       0.16620000
H        0.74710000      -0.86320000      -0.13470000
H       -0.00270000      -0.18070000       1.31940000
H       -1.04420000      -2.40030000      -0.31080000
H       -1.75200000      -2.47880000       2.10730000
H       -2.57530000      -0.90570000       1.89060000
H       -4.63650000      -4.33350000       0.20350000
H       -3.92800000      -4.32540000       1.90240000
H       -3.67930000      -0.91230000      -0.77380000
H       -3.25460000      -2.48490000      -1.50680000
