15
Properties=species:S:1:pos:R:3 gdb_48662=T pbc="F F F"
O       -0.20950000       0.16470000      -0.17140000
C       -0.04630000       1.36200000      -0.13110000
C        1.27590000       1.98600000       0.01640000
C        1.50630000       3.42020000       0.42970000
C        1.96290000       3.03600000      -0.93320000
O        3.18340000       2.32210000      -0.92640000
C        2.61080000       1.26090000      -0.10420000
C        1.44220000       3.60260000      -2.19580000
O        0.40020000       4.20790000      -2.27360000
H       -0.89470000       2.07430000      -0.20750000
H        0.61320000       4.03730000       0.44170000
H        2.25510000       3.64020000       1.18480000
H        3.17870000       1.10420000       0.81780000
H        2.53410000       0.33020000      -0.67110000
H        2.09450000       3.40950000      -3.07280000
