20
Properties=species:S:1:pos:R:3 gdb_83651=T pbc="F F F"
C       -0.11260000       1.62460000       0.11410000
N       -0.06840000       0.17770000       0.11060000
C       -1.31370000      -0.54940000       0.45650000
C       -1.47920000      -1.85110000      -0.34580000
O       -0.64160000      -2.57710000       0.59230000
C       -0.52970000      -1.42980000       1.45860000
C        0.66410000      -0.52420000       1.18310000
C        2.11530000      -0.86590000       1.19240000
C        1.55470000       0.09710000       2.22430000
H        0.88280000       2.02890000      -0.09870000
H       -0.78000000       1.96670000      -0.68360000
H       -0.46070000       2.06280000       1.06740000
H       -2.18530000       0.06450000       0.69100000
H       -2.49700000      -2.26240000      -0.36200000
H       -1.06050000      -1.83190000      -1.35690000
H       -0.79030000      -1.65530000       2.49540000
H        2.40260000      -1.86400000       1.50510000
H        2.72840000      -0.44770000       0.40060000
H        1.81000000       1.14660000       2.12320000
H        1.45310000      -0.23830000       3.25210000
