13
Properties=species:S:1:pos:R:3 gdb_48004=T pbc="F F F"
O       -0.23290000       0.23250000       0.74150000
C        0.10650000       0.95500000      -0.16540000
C        1.27240000       1.80550000      -0.12680000
C        2.23940000       2.52950000      -0.12640000
C        3.42180000       3.34180000      -0.07670000
O        3.84330000       3.99190000      -1.27340000
C        3.38500000       4.82920000      -0.21640000
C        2.08530000       5.53490000      -0.46060000
O        1.79950000       6.57470000       0.07110000
H       -0.46640000       1.01630000      -1.11180000
H        4.23400000       2.94120000       0.52890000
H        4.14340000       5.40750000       0.30920000
H        1.41820000       5.01840000      -1.18150000
