17
Properties=species:S:1:pos:R:3 gdb_67394=T pbc="F F F"
O       -0.11540000       1.39030000      -0.00790000
C        0.01420000       0.02300000      -0.01480000
C       -1.05270000      -1.01640000       0.02270000
C       -0.45690000      -1.75770000      -1.16850000
C        0.83010000      -0.87880000      -1.01650000
C        1.87630000      -1.60650000      -0.17260000
C        1.19210000      -1.77040000       1.19930000
O        1.60550000      -2.42470000       2.12490000
C       -0.02030000      -0.89570000       1.18830000
H        0.64690000       1.77320000       0.44120000
H       -2.09980000      -0.91500000       0.28080000
H       -0.32170000      -2.84150000      -1.08640000
H       -1.00250000      -1.52920000      -2.08730000
H        1.19940000      -0.40160000      -1.92270000
H        2.19110000      -2.57320000      -0.57470000
H        2.77990000      -1.00040000      -0.02730000
H       -0.44650000      -0.55960000       2.12560000
