15
Properties=species:S:1:pos:R:3 gdb_123465=T pbc="F F F"
C       -0.06320000       1.59140000       0.02510000
C       -0.19870000       0.11990000       0.36210000
C       -1.30460000      -0.68780000      -0.16310000
O        0.01250000      -0.80060000      -0.70640000
C        1.36040000       2.04680000      -0.02540000
N        2.23010000       1.89720000       0.97050000
N        3.31550000       2.44750000       0.44470000
N        3.16280000       2.91610000      -0.78310000
N        1.91820000       2.66730000      -1.09870000
H       -0.51770000       1.79220000      -0.94800000
H       -0.60620000       2.17740000       0.77730000
H        0.25830000      -0.17930000       1.30550000
H       -1.65830000      -1.55250000       0.39640000
H       -2.04170000      -0.22570000      -0.81880000
H        4.19450000       2.50380000       0.93740000
