22
Properties=species:S:1:pos:R:3 gdb_100091=T pbc="F F F"
C       -0.43700000       1.39010000       0.01740000
C        0.29360000       0.04940000      -0.10720000
C        0.77370000      -0.56990000       1.22550000
C        1.84430000       0.29120000       1.90820000
O       -0.35810000      -0.73780000       2.10740000
C        1.29320000      -1.99470000       0.94270000
C        1.94780000      -2.73360000       2.11420000
N        1.15950000      -2.85920000       3.22030000
O        3.06550000      -3.20860000       2.03570000
H        0.20320000       2.17910000       0.42440000
H       -0.78200000       1.72720000      -0.96430000
H       -1.32240000       1.30220000       0.65620000
H       -0.37510000      -0.67480000      -0.58660000
H        1.16120000       0.16180000      -0.76840000
H        1.46700000       1.29700000       2.12200000
H        2.15740000      -0.16050000       2.85270000
H        2.72710000       0.39570000       1.27050000
H       -0.58460000       0.12490000       2.46890000
H        0.44690000      -2.59180000       0.58330000
H        2.04150000      -1.95930000       0.14910000
H        0.32740000      -2.29320000       3.29660000
H        1.57360000      -3.26530000       4.04360000
