23
Properties=species:S:1:pos:R:3 gdb_119269=T pbc="F F F"
C        0.45370000       1.23570000      -0.54470000
O        0.41100000      -0.16150000      -0.38990000
C        0.67870000      -0.57660000       0.93530000
C        0.56730000      -2.08310000       1.01280000
C       -0.77600000      -2.67120000       0.60730000
C       -1.93800000      -2.29220000       1.53050000
O       -3.14600000      -2.95030000       1.17680000
C        1.81340000      -2.87150000       0.68930000
C        1.34480000      -2.76010000       2.11880000
H        1.44760000       1.64480000      -0.30170000
H        0.22850000       1.45790000      -1.59080000
H       -0.28750000       1.74290000       0.09400000
H        1.69040000      -0.25820000       1.24020000
H       -0.02930000      -0.09160000       1.62970000
H       -1.00840000      -2.34560000      -0.41480000
H       -0.70720000      -3.76490000       0.58730000
H       -1.72060000      -2.60590000       2.55730000
H       -2.07670000      -1.20020000       1.54870000
H       -3.37920000      -2.67070000       0.28570000
H        1.69640000      -3.82410000       0.18410000
H        2.70170000      -2.32120000       0.39800000
H        1.92090000      -2.14450000       2.80210000
H        0.90150000      -3.63530000       2.58180000
