19
Properties=species:S:1:pos:R:3 gdb_18015=T pbc="F F F"
C        0.04590000       1.54040000      -0.06240000
C        0.07970000       0.02690000       0.13990000
N       -1.25040000      -0.54700000       0.07270000
C       -2.16730000      -0.31380000       1.22020000
C       -2.52150000      -1.81230000       1.23650000
O       -3.51220000      -2.20760000       0.26930000
C       -2.49570000      -2.57390000      -0.70130000
C       -1.38670000      -2.01570000       0.20440000
H        1.05630000       1.95860000      -0.02220000
H       -0.40070000       1.78800000      -1.02950000
H       -0.54720000       2.02910000       0.71790000
H        0.68360000      -0.43760000      -0.64930000
H        0.58320000      -0.20320000       1.10160000
H       -1.63790000      -0.01340000       2.13920000
H       -2.98800000       0.38400000       1.02730000
H       -2.64290000      -2.31750000       2.19680000
H       -2.47050000      -3.66150000      -0.85140000
H       -2.62470000      -2.06040000      -1.65940000
H       -0.46630000      -2.58320000       0.35920000
