18
Properties=species:S:1:pos:R:3 gdb_115229=T pbc="F F F"
C       -0.08830000       1.44850000       0.00980000
O       -0.04120000       0.04080000       0.14450000
C       -1.28930000      -0.60260000       0.03430000
C       -1.69760000      -0.85070000      -1.41580000
O       -2.89440000      -1.62430000      -1.46680000
C       -3.01350000      -2.72670000      -0.69320000
N       -3.85410000      -3.60850000      -1.01990000
O       -2.28960000      -2.79130000       0.45990000
C       -1.14050000      -1.96990000       0.68290000
H        0.92670000       1.81590000       0.17500000
H       -0.41640000       1.76450000      -0.99010000
H       -0.75790000       1.90070000       0.75590000
H       -2.08000000      -0.02980000       0.54290000
H       -1.92610000       0.07110000      -1.95400000
H       -0.88100000      -1.36640000      -1.93980000
H       -3.87070000      -4.33920000      -0.31150000
H       -0.24710000      -2.46030000       0.27450000
H       -1.02750000      -1.89250000       1.76610000
