21
Properties=species:S:1:pos:R:3 gdb_104064=T pbc="F F F"
O        0.11600000       1.39250000      -0.22850000
C        0.05270000      -0.02560000      -0.26230000
C       -1.37540000      -0.52180000      -0.03750000
O       -1.89910000       0.11310000       1.13210000
C       -2.38010000      -0.46550000      -1.23250000
C       -2.72080000      -1.96700000      -1.02400000
C       -1.90150000      -2.95050000      -1.89930000
C       -0.78210000      -2.98830000      -0.81440000
C       -1.62150000      -2.04650000       0.09650000
H       -0.11380000       1.64080000       0.67380000
H        0.42270000      -0.32590000      -1.24650000
H        0.71380000      -0.47170000       0.49790000
H       -2.24820000       0.96690000       0.85440000
H       -3.21670000       0.21610000      -1.05340000
H       -1.93870000      -0.22060000      -2.20320000
H       -3.77010000      -2.20550000      -0.84970000
H       -2.39100000      -3.91770000      -2.03870000
H       -1.61280000      -2.57390000      -2.88540000
H       -0.63610000      -3.97860000      -0.37740000
H        0.19870000      -2.61700000      -1.12090000
H       -1.81210000      -2.37670000       1.11750000
