21
Properties=species:S:1:pos:R:3 gdb_114366=T pbc="F F F"
O       -0.06610000       1.37050000      -0.31890000
C        0.03960000      -0.02870000      -0.08290000
C       -1.36850000      -0.58260000      -0.00540000
C       -2.24300000      -0.63660000      -1.29340000
C       -2.72930000      -2.06130000      -0.89910000
C       -2.01640000      -3.22160000      -1.63990000
O       -1.69300000      -3.07530000      -3.00570000
C       -0.79540000      -3.07350000      -0.70120000
C       -1.60890000      -2.09820000       0.20670000
H        0.81850000       1.71760000      -0.46560000
H        0.60200000      -0.51890000      -0.89210000
H        0.57390000      -0.23570000       0.86020000
H       -1.90070000      -0.02570000       0.77370000
H       -3.01750000       0.12840000      -1.36620000
H       -1.66800000      -0.63560000      -2.22340000
H       -3.79290000      -2.17000000      -0.67960000
H       -2.54190000      -4.17140000      -1.46200000
H       -2.50680000      -3.13190000      -3.51730000
H       -0.46000000      -3.99540000      -0.22200000
H        0.05870000      -2.62110000      -1.20990000
H       -1.78510000      -2.44610000       1.22530000
