21
Properties=species:S:1:pos:R:3 gdb_120011=T pbc="F F F"
C        0.03830000       1.50500000       0.13760000
C        0.23240000      -0.00740000       0.13460000
N        0.34170000      -0.51000000      -1.23960000
C        0.53470000      -1.94380000      -1.31410000
C        0.88500000      -2.52640000      -2.71410000
C        1.03350000      -1.58250000      -3.88530000
O        2.19200000      -2.96210000      -2.19280000
C        1.93170000      -2.42620000      -0.95450000
N        2.63820000      -2.38040000       0.08150000
H        0.86950000       2.00150000      -0.37100000
H       -0.88920000       1.78850000      -0.37470000
H       -0.02120000       1.88420000       1.16190000
H        1.15570000      -0.27600000       0.65610000
H       -0.59310000      -0.49320000       0.68780000
H       -0.50460000      -0.26680000      -1.74830000
H       -0.24210000      -2.52960000      -0.79270000
H        0.29850000      -3.41120000      -2.97970000
H        1.57640000      -0.68290000      -3.59070000
H        1.56850000      -2.08000000      -4.69950000
H        0.04750000      -1.28750000      -4.26140000
H        3.55100000      -2.81310000      -0.07320000
