12
Properties=species:S:1:pos:R:3 gdb_99431=T pbc="F F F"
O       -0.06290000       1.41410000       0.01020000
C        0.03200000       0.01940000       0.00170000
C       -1.44030000      -0.51200000       0.01290000
C       -2.15350000      -0.02700000      -1.18720000
N       -2.69190000       0.33590000      -2.14030000
C       -1.40320000      -1.98820000       0.00470000
N       -1.32410000      -3.13890000      -0.00210000
C       -2.13030000      -0.03980000       1.23160000
N       -2.65000000       0.31310000       2.19880000
H        0.82090000       1.79470000       0.00650000
H        0.51650000      -0.37920000      -0.89970000
H        0.53360000      -0.38900000       0.88910000
