19
Properties=species:S:1:pos:R:3 gdb_99318=T pbc="F F F"
O        0.23530000       1.26340000      -0.20500000
C        0.00880000      -0.10800000      -0.32850000
C       -1.41220000      -0.47690000       0.08210000
O       -2.18190000       0.40900000       0.39210000
C       -1.79360000      -1.94170000       0.08760000
C       -3.29540000      -2.18580000       0.26490000
C       -3.61710000      -3.65870000       0.31160000
C       -4.79640000      -4.22890000      -0.34900000
O       -3.49580000      -4.37140000      -0.92470000
H       -0.62050000       1.63420000       0.06490000
H        0.15690000      -0.45220000      -1.36690000
H        0.71580000      -0.68630000       0.28830000
H       -1.43460000      -2.41100000      -0.83670000
H       -1.22290000      -2.42170000       0.89650000
H       -3.64130000      -1.70110000       1.18410000
H       -3.84070000      -1.71920000      -0.56150000
H       -3.20830000      -4.20090000       1.16750000
H       -5.24300000      -5.14640000       0.03140000
H       -5.47650000      -3.57120000      -0.88890000
