17
Properties=species:S:1:pos:R:3 gdb_72206=T pbc="F F F"
O       -0.03960000       1.31320000       0.11310000
C        0.05810000      -0.07160000       0.00850000
C       -0.15150000      -0.74430000      -1.34310000
C        0.01220000      -2.22070000      -0.99340000
O       -1.17460000      -2.66080000      -0.27560000
C       -0.52880000      -2.31430000       0.96230000
C       -0.40790000      -0.79910000       1.25040000
C        1.07580000      -0.82100000       0.83070000
C        0.87540000      -2.26470000       0.33100000
H        0.67590000       1.70120000      -0.40340000
H       -1.13890000      -0.55350000      -1.77120000
H        0.61470000      -0.40600000      -2.05460000
H        0.25210000      -2.88480000      -1.82540000
H       -0.81880000      -2.94830000       1.80190000
H       -0.88390000      -0.23750000       2.04450000
H        1.94030000      -0.37910000       1.30740000
H        1.62470000      -3.04100000       0.46040000
