14
Properties=species:S:1:pos:R:3 gdb_25415=T pbc="F F F"
O       -0.11750000      -0.02710000       0.00070000
C       -0.03520000       1.18110000       0.00950000
C        1.22340000       1.92880000       0.00160000
C        1.21270000       3.29800000       0.01300000
N        2.36620000       3.99520000       0.00580000
C        3.67040000       3.42740000      -0.01350000
O        4.63970000       4.16030000      -0.01800000
C        3.65560000       1.97380000      -0.02510000
C        2.49620000       1.27010000      -0.01800000
H       -0.94770000       1.82030000       0.02500000
H        0.29240000       3.87330000       0.02800000
H        2.35920000       5.00680000       0.01420000
H        4.62520000       1.49160000      -0.03980000
H        2.49330000       0.18500000      -0.02680000
