19
Properties=species:S:1:pos:R:3 gdb_112184=T pbc="F F F"
C       -0.11720000       1.62740000      -0.09070000
C       -0.05100000       0.15520000       0.33040000
C       -1.33350000      -0.58790000       0.02480000
O       -1.57330000      -0.70370000      -1.43230000
C       -1.70970000      -2.06020000      -1.36130000
O       -1.98280000      -2.82310000      -2.23350000
C       -1.42980000      -2.13020000       0.15630000
C       -0.20030000      -2.92720000       0.56280000
O       -2.56830000      -2.48230000       0.91650000
H        0.82300000       2.13950000       0.13180000
H       -0.30710000       1.71360000      -1.16420000
H       -0.92000000       2.15360000       0.43650000
H        0.78690000      -0.33850000      -0.17390000
H        0.13530000       0.07750000       1.40910000
H       -2.20110000      -0.10720000       0.48520000
H        0.68780000      -2.63360000      -0.00290000
H       -0.00320000      -2.79550000       1.63050000
H       -0.37560000      -3.99100000       0.37070000
H       -2.78120000      -3.40250000       0.72170000
