15
Properties=species:S:1:pos:R:3 gdb_29566=T pbc="F F F"
O       -0.12770000       1.30230000       0.21400000
C       -0.00740000      -0.04980000       0.04890000
C        1.18610000      -0.69140000       0.00270000
N        1.24290000      -2.05320000      -0.16520000
C        0.08540000      -2.78740000      -0.28960000
C       -1.13570000      -2.19450000      -0.25040000
O       -2.30060000      -2.88620000      -0.36960000
C       -1.28820000      -0.74960000      -0.07460000
N       -2.45390000      -0.20050000      -0.03910000
H        0.74480000       1.70100000       0.28870000
H        2.13720000      -0.17970000       0.09330000
H        2.13260000      -2.51560000      -0.19860000
H        0.21190000      -3.85570000      -0.41910000
H       -2.10420000      -3.82230000      -0.48200000
H       -2.34320000       0.80620000       0.08950000
