23
Properties=species:S:1:pos:R:3 gdb_57551=T pbc="F F F"
C       -0.01480000       1.55020000       0.02430000
C        0.02380000       0.01150000       0.01450000
C        0.75470000      -0.50410000       1.26720000
C       -1.40860000      -0.54790000      -0.02330000
C        0.75380000      -0.47740000      -1.24530000
O        2.08020000       0.01700000      -1.24990000
C        2.81110000      -0.39580000      -2.38520000
C        4.16440000       0.14250000      -2.33180000
C        5.28500000       0.57330000      -2.31250000
H        0.99580000       1.96490000       0.00360000
H       -0.55670000       1.93640000      -0.84660000
H       -0.52150000       1.91820000       0.92260000
H        0.25480000      -0.15530000       2.17710000
H        0.76790000      -1.59980000       1.29280000
H        1.78940000      -0.15380000       1.28590000
H       -1.95180000      -0.19980000      -0.90910000
H       -1.41100000      -1.64370000      -0.03510000
H       -1.97040000      -0.22430000       0.85890000
H        0.76290000      -1.58110000      -1.27210000
H        0.22020000      -0.13300000      -2.14850000
H        2.85260000      -1.49770000      -2.43920000
H        2.31360000      -0.05620000      -3.31030000
H        6.27480000       0.95730000      -2.28940000
