18
Properties=species:S:1:pos:R:3 gdb_65193=T pbc="F F F"
C        0.86790000       0.41450000      -0.34550000
C        0.16430000      -0.42170000       0.70000000
C        0.90550000      -1.40190000       1.51130000
O        0.51690000      -0.13520000       2.05390000
C       -1.30240000      -0.65440000       0.43940000
N       -2.10110000      -1.30120000       1.46220000
C       -2.41900000       0.09990000       1.11710000
C       -2.19510000       1.11390000       2.19330000
O       -2.73070000       2.19560000       2.17840000
H        1.91610000       0.55740000      -0.07410000
H        0.82410000      -0.06680000      -1.32850000
H        0.39770000       1.39990000      -0.43090000
H        0.37230000      -2.25550000       1.92330000
H        1.97550000      -1.53110000       1.35480000
H       -1.50830000      -0.90340000      -0.60200000
H       -2.78570000      -1.93230000       1.05630000
H       -3.29360000       0.30850000       0.50440000
H       -1.51400000       0.79070000       3.00100000
