20
Properties=species:S:1:pos:R:3 gdb_71202=T pbc="F F F"
C       -0.04030000       1.47950000       0.08940000
C        0.00900000      -0.03970000       0.00900000
C        0.19260000      -0.61090000      -1.43010000
N       -1.15080000      -1.28280000      -1.41950000
C       -1.19330000      -2.17340000      -0.20100000
C       -0.00940000      -2.84200000       0.39420000
C        0.96590000      -2.15490000       0.99320000
C        0.97130000      -0.64770000       1.03900000
C       -1.37640000      -0.72080000      -0.03760000
H        0.94850000       1.91490000      -0.09580000
H       -0.73430000       1.89310000      -0.64970000
H       -0.36970000       1.81210000       1.08080000
H        0.19300000       0.16060000      -2.20400000
H        1.03580000      -1.28830000      -1.59440000
H       -2.09790000      -2.77340000      -0.23610000
H        0.02370000      -3.92670000       0.35180000
H        1.79970000      -2.67700000       1.45520000
H        1.98660000      -0.27900000       0.83570000
H        0.72990000      -0.29570000       2.05410000
H       -2.31510000      -0.25750000       0.25380000
