17
Properties=species:S:1:pos:R:3 gdb_132503=T pbc="F F F"
C        0.00890000       1.51020000       0.04700000
C        0.01480000       0.00730000      -0.02500000
C       -0.13520000      -0.68340000      -1.22350000
C       -0.11930000      -2.07810000      -1.21080000
C        0.04420000      -2.76890000      -0.01670000
C        0.07400000      -4.26790000       0.09380000
C        0.18380000      -1.95300000       1.11250000
F        0.34440000      -2.56400000       2.29090000
N        0.17420000      -0.64650000       1.14100000
H        0.94830000       1.87560000       0.47430000
H       -0.12540000       1.96000000      -0.93940000
H       -0.79540000       1.85780000       0.70340000
H       -0.26260000      -0.14150000      -2.15350000
H       -0.23490000      -2.63380000      -2.13680000
H        1.01970000      -4.61700000       0.52180000
H       -0.72230000      -4.63480000       0.75010000
H       -0.04980000      -4.73300000      -0.88730000
