17
Properties=species:S:1:pos:R:3 gdb_22868=T pbc="F F F"
C       -0.14310000       1.58070000       0.02700000
C        0.03520000       0.05900000       0.02970000
C        0.85330000      -0.43810000      -1.17460000
O        0.67230000      -0.14180000      -2.33450000
N        1.82130000      -1.28160000      -0.70110000
C        1.88500000      -1.44020000       0.73790000
C        0.77950000      -0.51610000       1.20990000
N        0.50100000      -0.22450000       2.41430000
O        1.35520000      -0.89750000       3.30460000
H        0.82100000       2.08740000       0.13060000
H       -0.59520000       1.89060000      -0.91800000
H       -0.78230000       1.89170000       0.85610000
H       -0.95410000      -0.41190000      -0.04940000
H        2.46770000      -1.72040000      -1.33720000
H        1.70040000      -2.47330000       1.06240000
H        2.85120000      -1.13700000       1.16030000
H        1.04970000      -0.58250000       4.16190000
