16
Properties=species:S:1:pos:R:3 gdb_124360=T pbc="F F F"
C       -0.13460000       1.55260000       0.02530000
C        0.10720000       0.05140000       0.06030000
O        1.21790000      -0.42500000       0.19090000
N       -1.02870000      -0.71330000      -0.05240000
C       -1.07740000      -2.11220000      -0.02330000
C       -2.22180000      -2.88080000      -0.13260000
N       -1.80730000      -4.17160000      -0.05440000
N       -0.48090000      -4.29590000       0.09690000
C       -0.02110000      -3.04730000       0.11770000
H        0.57360000       2.00240000      -0.67400000
H       -1.15100000       1.83340000      -0.26350000
H        0.07550000       1.96740000       1.01570000
H       -1.90680000      -0.23270000      -0.15750000
H       -3.25960000      -2.61480000      -0.25510000
H       -2.37520000      -4.99990000      -0.09760000
H        1.02770000      -2.83790000       0.22950000
