23
Properties=species:S:1:pos:R:3 gdb_73844=T pbc="F F F"
C        0.02470000       1.49680000       0.22460000
C       -0.09340000       0.00980000       0.08840000
C        0.02220000      -0.73510000      -1.02270000
C        0.29860000      -0.27670000      -2.42250000
C       -0.18080000      -2.20610000      -0.74450000
C        1.11320000      -3.07700000      -0.70890000
C        1.17060000      -2.88500000       0.83250000
C       -0.26370000      -2.27480000       0.81360000
C       -0.41240000      -0.82990000       1.31280000
H        0.82780000       1.76540000       0.92340000
H        0.22780000       1.99590000      -0.72580000
H       -0.89780000       1.92600000       0.63800000
H        0.45570000       0.80220000      -2.49340000
H        1.18900000      -0.77110000      -2.83140000
H       -0.53270000      -0.53910000      -3.09040000
H       -1.00520000      -2.62410000      -1.33490000
H        0.92500000      -4.11470000      -0.99860000
H        1.96790000      -2.71030000      -1.28460000
H        1.30100000      -3.79320000       1.42600000
H        1.92730000      -2.16070000       1.14800000
H       -1.01940000      -2.95250000       1.21510000
H        0.26530000      -0.61180000       2.15060000
H       -1.42580000      -0.61040000       1.68090000
