14
Properties=species:S:1:pos:R:3 gdb_21715=T pbc="F F F"
N        0.07140000       1.20880000       0.61610000
C       -0.08110000       0.05780000      -0.29760000
C       -1.43580000      -0.54400000      -0.11730000
C       -2.15170000      -0.72450000       1.05490000
N       -1.79900000      -0.42440000       2.33220000
O       -3.30350000      -1.30190000       0.79530000
N       -3.30460000      -1.50640000      -0.70750000
N       -2.21920000      -1.04480000      -1.11150000
H        1.03320000       1.53360000       0.60540000
H       -0.50140000       1.98110000       0.28690000
H        0.05780000       0.30040000      -1.36070000
H        0.70620000      -0.66100000      -0.03260000
H       -1.07670000       0.28730000       2.37750000
H       -2.54930000      -0.35260000       3.00180000
