16
Properties=species:S:1:pos:R:3 gdb_123341=T pbc="F F F"
C       -0.02300000      -1.22700000      -0.08180000
C       -0.03740000      -0.02840000       0.00900000
C       -0.01560000       1.42420000       0.11740000
C        1.40840000       2.01130000      -0.04730000
C        1.41540000       3.50370000       0.04270000
C        2.01300000       4.33760000       0.95940000
N        1.67160000       5.58110000       0.54550000
N        0.90620000       5.53990000      -0.55930000
N        0.75090000       4.28490000      -0.86330000
H       -0.02810000      -2.28540000      -0.16430000
H       -0.66670000       1.87020000      -0.64280000
H       -0.42320000       1.73030000       1.08890000
H        2.06830000       1.58920000       0.71610000
H        1.80310000       1.69770000      -1.01930000
H        2.62590000       4.15790000       1.82640000
H        1.91500000       6.47370000       0.94400000
