27
Properties=species:S:1:pos:R:3 gdb_122878=T pbc="F F F"
C        0.05830000       1.64080000       0.08580000
C       -0.00940000       0.11310000       0.01210000
C        0.70350000      -0.46600000      -1.21470000
C        0.63750000      -1.99530000      -1.29100000
C        1.34420000      -2.56580000      -2.52530000
C        1.47680000      -4.10550000      -2.56070000
C        0.11570000      -4.80570000      -2.52820000
C        2.26440000      -4.53040000      -3.80870000
O        2.15880000      -4.56820000      -1.38540000
H        1.09620000       1.98960000       0.13180000
H       -0.40400000       2.10060000      -0.79510000
H       -0.46020000       2.02310000       0.97070000
H        0.42950000      -0.31870000       0.92130000
H       -1.05990000      -0.20710000       0.00380000
H        0.26520000      -0.03330000      -2.12550000
H        1.75510000      -0.14500000      -1.20720000
H        1.08910000      -2.43350000      -0.39320000
H       -0.41530000      -2.30450000      -1.28660000
H        0.83270000      -2.23220000      -3.43800000
H        2.35900000      -2.14290000      -2.58130000
H       -0.50880000      -4.48170000      -3.36610000
H        0.25090000      -5.88890000      -2.59370000
H       -0.41060000      -4.58950000      -1.59600000
H        3.25060000      -4.05060000      -3.82870000
H        2.41190000      -5.61420000      -3.81220000
H        1.74150000      -4.24760000      -4.72820000
H        3.04820000      -4.19800000      -1.39970000
