23
Properties=species:S:1:pos:R:3 gdb_103837=T pbc="F F F"
C       -0.27070000       1.59590000       0.17200000
C        0.13360000       0.13680000      -0.07310000
C        0.79960000      -0.50210000       1.13070000
O        2.01140000       0.10770000       1.51640000
C       -0.03370000      -1.10370000       2.24250000
C        0.81480000      -1.98690000       1.33950000
C        0.20380000      -3.00640000       0.37880000
C        0.41460000      -4.43540000       0.88530000
O       -1.17680000      -2.76820000       0.10690000
H        0.60040000       2.22250000       0.39510000
H       -0.75540000       2.02220000      -0.71120000
H       -0.97140000       1.67860000       1.01040000
H       -0.74190000      -0.45630000      -0.34810000
H        0.83280000       0.09050000      -0.91780000
H        1.80040000       0.97110000       1.88750000
H        0.29840000      -0.95890000       3.26450000
H       -1.11040000      -1.11840000       2.10490000
H        1.73990000      -2.32880000       1.79520000
H        0.68810000      -2.90530000      -0.60040000
H       -0.03300000      -4.56290000       1.87900000
H       -0.04940000      -5.15070000       0.20100000
H        1.48000000      -4.67170000       0.96890000
H       -1.66500000      -2.96140000       0.91500000
