19
Properties=species:S:1:pos:R:3 gdb_112656=T pbc="F F F"
C        0.28750000       1.30010000      -0.56240000
C        0.03210000      -0.11590000      -0.04990000
O        0.27750000      -1.11870000      -1.03080000
C        1.40440000      -1.95610000      -0.67070000
C        2.62200000      -1.51020000      -1.48350000
O        2.31510000      -1.44310000      -2.85610000
C        1.58560000      -1.80780000       0.83870000
C        0.91350000      -0.47270000       1.15180000
O        1.03990000       0.19180000       2.14500000
H        1.32360000       1.42000000      -0.89210000
H       -0.37360000       1.52510000      -1.40310000
H        0.09580000       2.01530000       0.24240000
H       -1.01820000      -0.19970000       0.26620000
H        1.12970000      -2.97080000      -0.97300000
H        2.98490000      -0.54040000      -1.09730000
H        3.43590000      -2.23410000      -1.36130000
H        1.45890000      -0.99860000      -2.90690000
H        1.05790000      -2.59240000       1.39240000
H        2.62570000      -1.80690000       1.17310000
