17
Properties=species:S:1:pos:R:3 gdb_45474=T pbc="F F F"
O       -0.13790000      -0.06880000      -0.01690000
C       -0.10940000       1.11220000      -0.25010000
O       -1.11860000       1.67250000      -0.96990000
C       -1.21800000       3.08730000      -1.08120000
C       -1.82560000       3.88010000       0.10110000
C       -0.76650000       4.98670000      -0.16220000
C        0.06620000       3.95240000      -0.99300000
C        1.12400000       3.26470000      -0.19880000
C        1.01290000       1.98520000       0.16510000
H       -1.76710000       3.26210000      -2.00840000
H       -2.88010000       4.15150000       0.03110000
H       -1.65310000       3.36750000       1.05000000
H       -1.14590000       5.79370000      -0.79300000
H       -0.27570000       5.42250000       0.71020000
H        0.47790000       4.32760000      -1.93590000
H        1.99910000       3.84520000       0.08730000
H        1.77220000       1.47580000       0.74670000
