16
Properties=species:S:1:pos:R:3 gdb_56610=T pbc="F F F"
C        0.01970000       1.58000000       0.00140000
C        0.03010000       0.03910000      -0.01390000
C        0.65890000      -0.47110000      -1.22760000
C        1.19870000      -0.87000000      -2.22370000
C        0.75920000      -0.53310000       1.25500000
C        0.02630000      -0.08850000       2.53160000
O        0.43940000       0.76330000       3.26680000
C        0.81000000      -1.99370000       1.23500000
N        0.81420000      -3.14880000       1.26850000
H        1.04050000       1.97200000      -0.01150000
H       -0.49900000       1.95200000      -0.88460000
H       -0.48620000       1.96720000       0.88930000
H       -1.00610000      -0.32330000       0.01850000
H        1.66340000      -1.23820000      -3.10520000
H        1.77490000      -0.12790000       1.29380000
H       -0.93870000      -0.61050000       2.70730000
