19
Properties=species:S:1:pos:R:3 gdb_72250=T pbc="F F F"
C       -0.11230000       1.49200000       0.01530000
C        0.00070000      -0.00330000      -0.03970000
C        0.87020000      -0.80970000      -1.01280000
C       -0.08180000      -2.02990000      -0.78000000
O        0.41040000      -2.91400000       0.21810000
C        0.54650000      -2.13700000       1.41810000
C       -0.29940000      -0.89090000       1.18730000
C       -1.07890000      -1.06290000      -0.08410000
O       -2.43600000      -0.91840000      -0.27200000
H        0.79630000       1.94660000       0.42690000
H       -0.26890000       1.90910000      -0.98590000
H       -0.95580000       1.80260000       0.64000000
H        0.79160000      -0.41750000      -2.03160000
H        1.92470000      -0.97410000      -0.76740000
H       -0.39740000      -2.61070000      -1.64540000
H        0.18120000      -2.73300000       2.26300000
H        1.60580000      -1.90720000       1.60030000
H       -0.77210000      -0.38830000       2.02350000
H       -2.89140000      -1.59330000       0.24420000
