19
Properties=species:S:1:pos:R:3 gdb_116021=T pbc="F F F"
C        0.00790000       1.54890000      -0.01210000
C        0.00120000       0.02150000      -0.08980000
C       -1.40050000      -0.57240000      -0.02430000
O       -2.11500000      -0.15970000      -1.18540000
C       -3.44690000      -0.61160000      -1.23360000
C       -3.56780000      -2.09000000      -1.01020000
C       -2.58010000      -2.78990000      -0.44210000
C       -1.38880000      -2.10500000       0.09720000
O       -0.49600000      -2.69920000       0.66670000
H        1.02700000       1.93870000      -0.09130000
H       -0.58710000       1.98300000      -0.82010000
H       -0.40930000       1.89930000       0.93890000
H        0.46590000      -0.31350000      -1.02450000
H        0.58110000      -0.42030000       0.72490000
H       -1.91800000      -0.19350000       0.87990000
H       -4.07810000      -0.07750000      -0.49620000
H       -3.82970000      -0.34460000      -2.22520000
H       -4.49320000      -2.56730000      -1.32470000
H       -2.62870000      -3.86380000      -0.29320000
