19
Properties=species:S:1:pos:R:3 gdb_94034=T pbc="F F F"
C        0.31220000       1.59480000      -0.34030000
C       -0.03040000       0.16000000       0.06210000
O        0.39020000      -0.74760000      -0.96510000
C        1.21560000      -1.76910000      -0.42090000
C        1.38260000      -1.41770000       1.03570000
C        2.25200000      -2.21680000       1.97050000
C        1.87620000      -3.62920000       2.03880000
C        1.55940000      -4.78740000       2.08200000
C        0.66580000      -0.33150000       1.30300000
H        1.39520000       1.71960000      -0.43200000
H       -0.14870000       1.83310000      -1.30300000
H       -0.06170000       2.30500000       0.40500000
H       -1.12580000       0.08110000       0.17450000
H        0.74470000      -2.75610000      -0.54930000
H        2.17800000      -1.79960000      -0.95700000
H        3.30020000      -2.14820000       1.64350000
H        2.21470000      -1.77530000       2.97300000
H        1.28200000      -5.81140000       2.12600000
H        0.57040000       0.15760000       2.26500000
