15
Properties=species:S:1:pos:R:3 gdb_2594=T pbc="F F F"
O        0.13420000       1.31570000      -0.35470000
C       -0.00190000       0.00050000       0.14380000
C       -1.42990000      -0.52530000       0.04520000
C       -1.88270000      -1.13680000      -1.27010000
C       -1.63650000      -2.02580000      -0.08600000
C       -2.37940000       0.24490000       0.80350000
C       -3.12520000       0.93990000       1.44440000
H       -0.48870000       1.86850000       0.13170000
H        0.65730000      -0.62860000      -0.46340000
H        0.33670000      -0.07030000       1.18920000
H       -2.90730000      -0.96330000      -1.57600000
H       -1.16070000      -1.13520000      -2.07920000
H       -0.74570000      -2.64540000      -0.07900000
H       -2.49050000      -2.45780000       0.42160000
H       -3.80230000       1.53090000       2.01000000
