17
Properties=species:S:1:pos:R:3 gdb_10949=T pbc="F F F"
C       -0.13630000       1.37080000       0.04980000
N       -0.06350000      -0.08000000       0.14730000
C       -1.10940000      -0.75070000       0.01760000
O       -2.43400000      -0.33260000      -0.19640000
C       -2.89340000      -1.70690000      -0.02050000
C       -4.13090000      -1.91280000       0.78410000
C       -2.33370000      -2.53190000      -1.12420000
C       -1.46200000      -2.19500000       0.09530000
H        0.43850000       1.70070000      -0.82300000
H       -1.15640000       1.76360000      -0.03440000
H        0.34170000       1.81190000       0.93100000
H       -4.99970000      -1.48860000       0.26900000
H       -4.31330000      -2.98100000       0.93090000
H       -4.04470000      -1.43290000       1.76330000
H       -2.66030000      -3.56730000      -1.15670000
H       -2.12060000      -2.08190000      -2.08880000
H       -1.00090000      -2.94510000       0.72100000
