17
Properties=species:S:1:pos:R:3 gdb_128390=T pbc="F F F"
C        0.48010000       0.64740000       0.35160000
N       -0.64320000       0.48770000      -0.56760000
C       -1.54590000      -0.59000000      -0.28530000
C       -0.98530000      -2.07360000      -0.48040000
N       -1.37150000      -2.28670000       0.92350000
N       -1.58530000      -3.13030000       1.95420000
C       -2.19240000      -2.28720000       2.80070000
N       -2.39970000      -0.99990000       2.36440000
C       -1.85700000      -1.07250000       1.15970000
H        1.06190000       1.52170000       0.04960000
H        0.18020000       0.76800000       1.40390000
H        1.14270000      -0.22210000       0.28980000
H       -1.15810000       1.35570000      -0.64660000
H       -2.45810000      -0.44040000      -0.86830000
H       -1.53850000      -2.69090000      -1.19160000
H        0.08800000      -2.14510000      -0.66530000
H       -2.49730000      -2.61830000       3.78280000
