22
Properties=species:S:1:pos:R:3 gdb_89794=T pbc="F F F"
C       -0.03120000       1.57730000      -0.00090000
C        0.06220000       0.05700000      -0.00390000
C        0.74130000      -0.55880000      -1.25500000
C        1.32740000      -1.86420000      -0.72490000
C        0.80270000      -3.20560000      -1.17660000
C        2.20020000      -2.77000000      -1.55010000
C        1.57240000      -1.61980000       0.74140000
C        2.24340000      -0.34780000       1.11790000
N        0.77720000      -0.46240000       1.18990000
H        0.96100000       2.03620000      -0.07360000
H       -0.62620000       1.92900000      -0.84990000
H       -0.50260000       1.93280000       0.91970000
H       -0.95110000      -0.35660000       0.07570000
H        0.03300000      -0.71330000      -2.07340000
H        1.52900000       0.10270000      -1.63530000
H        0.69420000      -3.99030000      -0.43430000
H        0.04630000      -3.22160000      -1.95460000
H        2.39200000      -2.49280000      -2.58180000
H        3.03550000      -3.26110000      -1.06140000
H        1.61380000      -2.47890000       1.40710000
H        2.73180000      -0.25690000       2.08380000
H        2.69800000       0.24770000       0.33020000
