19
Properties=species:S:1:pos:R:3 gdb_29570=T pbc="F F F"
C       -0.07520000       1.51740000       0.02400000
C       -0.03440000       0.01950000      -0.00000000
C       -0.03070000      -0.78640000      -1.11470000
N        0.01090000      -2.09520000      -0.70150000
C        0.03670000      -2.14350000       0.66770000
C        0.00250000      -0.84940000       1.14120000
C        0.03320000      -0.42750000       2.56280000
C       -1.21820000      -0.06290000       3.28470000
N       -0.49580000      -1.30240000       3.62540000
H        0.82760000       1.94460000       0.47770000
H       -0.15890000       1.92600000      -0.98730000
H       -0.92640000       1.89030000       0.60580000
H       -0.06150000      -0.53300000      -2.16280000
H        0.02160000      -2.89470000      -1.30890000
H        0.09760000      -3.08400000       1.19210000
H        0.93770000       0.09530000       2.87300000
H       -1.20000000       0.70360000       4.05460000
H       -2.15340000      -0.14360000       2.73760000
H       -0.97920000      -2.08590000       3.19180000
