22
Properties=species:S:1:pos:R:3 gdb_60349=T pbc="F F F"
C       -0.07030000       1.56770000      -0.13670000
C        0.02100000       0.03750000      -0.04580000
C        0.73730000      -0.53160000      -1.27820000
C        0.72080000      -0.43720000       1.24130000
C       -0.02620000      -0.09880000       2.53570000
C        0.70360000      -0.63270000       3.78150000
O        2.01500000      -0.11710000       3.92830000
C       -0.09860000      -0.38390000       4.99890000
N       -0.72410000      -0.15320000       5.94290000
H        0.92920000       2.01920000      -0.11990000
H       -0.55410000       1.87270000      -1.07010000
H       -0.64730000       2.00100000       0.68560000
H       -1.00340000      -0.36290000      -0.03740000
H        1.76920000      -0.16490000      -1.33490000
H        0.77420000      -1.62570000      -1.25040000
H        0.22960000      -0.23580000      -2.20200000
H        0.85040000      -1.52680000       1.18970000
H        1.73150000      -0.01410000       1.28770000
H       -0.14990000       0.98480000       2.65070000
H       -1.03670000      -0.52550000       2.51770000
H        0.83470000      -1.71690000       3.68580000
H        1.94930000       0.83490000       4.06860000
