23
Properties=species:S:1:pos:R:3 gdb_102615=T pbc="F F F"
C        0.26650000       1.56190000      -0.03240000
C        0.12020000       0.03830000      -0.02070000
C       -1.32930000      -0.44830000      -0.01080000
C       -1.44560000      -1.97240000      -0.03490000
C       -2.88750000      -2.48400000      -0.07390000
O       -1.96070000       0.02590000       1.20970000
C       -2.98010000       0.90720000       1.10790000
C       -3.49710000       1.26480000       2.48250000
O       -3.41340000       1.34210000       0.07080000
H        1.32050000       1.85120000      -0.08050000
H       -0.24550000       2.00460000      -0.89290000
H       -0.15830000       2.00570000       0.87260000
H        0.60400000      -0.38710000      -0.90850000
H        0.63980000      -0.38270000       0.84930000
H       -1.87850000      -0.01270000      -0.85060000
H       -0.90020000      -2.33160000      -0.91620000
H       -0.92560000      -2.37970000       0.84130000
H       -3.43870000      -2.17380000       0.81840000
H       -3.42260000      -2.09940000      -0.94850000
H       -2.91280000      -3.57690000      -0.11790000
H       -3.85660000       0.36660000       2.99260000
H       -2.68970000       1.68120000       3.09140000
H       -4.30610000       1.98820000       2.38940000
