19
Properties=species:S:1:pos:R:3 gdb_39766=T pbc="F F F"
C       -0.02800000       1.54360000      -0.07390000
C        1.30160000       0.82590000      -0.09320000
C        0.00130000       0.03290000      -0.08480000
C        0.12490000      -0.71880000      -1.42500000
C        1.62820000      -1.18540000      -1.34860000
C        1.90070000       0.36430000      -1.43640000
C        0.69200000       0.33870000      -2.37730000
C        0.65450000       0.38470000      -3.83370000
O        0.03640000       1.40670000      -3.02420000
H       -0.29580000       1.99280000       0.87800000
H       -0.37210000       2.09870000      -0.93590000
H        1.95320000       0.87140000       0.77170000
H       -0.32920000      -0.52060000       0.78640000
H       -0.68150000      -1.38870000      -1.72090000
H        1.93500000      -1.67860000      -0.42440000
H        1.96470000      -1.74640000      -2.22430000
H        2.86260000       0.77290000      -1.74380000
H        1.53060000       0.70830000      -4.39460000
H       -0.03930000      -0.24920000      -4.38440000
