15
Properties=species:S:1:pos:R:3 gdb_50971=T pbc="F F F"
N        0.14140000       1.27030000      -0.12700000
C        0.08040000       0.01800000      -0.20190000
O       -1.09690000      -0.60220000       0.09390000
C       -1.10250000      -2.02530000       0.05800000
C       -2.41740000      -2.48760000       0.70290000
C       -2.51700000      -2.09170000       2.16910000
O       -2.90160000      -2.84150000       3.02690000
C       -0.98770000      -2.52750000      -1.32480000
N       -0.89100000      -2.92340000      -2.40560000
H        1.07250000       1.59760000      -0.37570000
H        0.88210000      -0.67340000      -0.48940000
H       -0.24900000      -2.42080000       0.62690000
H       -3.24210000      -2.00990000       0.15940000
H       -2.52720000      -3.57080000       0.61810000
H       -2.22260000      -1.04620000       2.39430000
