19
Properties=species:S:1:pos:R:3 gdb_111268=T pbc="F F F"
C        0.13500000       1.28230000      -0.18600000
O       -0.30450000      -0.01310000       0.18440000
C        0.48360000      -0.59180000       1.18780000
C        0.08520000      -2.00870000       1.58420000
C        0.25060000      -2.91090000       0.41280000
C        1.50280000      -2.55940000       1.21150000
C        2.38590000      -3.58640000       1.85850000
C        1.90100000      -1.16440000       0.84080000
O        2.95270000      -0.64580000       0.57920000
H        1.16260000       1.26970000      -0.57000000
H       -0.54050000       1.63650000      -0.96780000
H        0.09090000       1.97780000       0.66650000
H        0.58160000       0.08270000       2.05550000
H       -0.49660000      -2.26950000       2.45840000
H       -0.07100000      -3.93840000       0.55260000
H        0.10050000      -2.52630000      -0.59000000
H        1.79900000      -4.42490000       2.24630000
H        3.10400000      -3.98820000       1.13590000
H        2.95640000      -3.15420000       2.68670000
