23
Properties=species:S:1:pos:R:3 gdb_36786=T pbc="F F F"
C       -0.06890000      -1.21490000       0.00770000
C       -0.04270000      -0.01620000       0.09430000
C        0.02380000       1.43690000       0.19180000
C        1.43120000       2.00000000      -0.09320000
C        1.48760000       3.52600000       0.01610000
C        2.88230000       4.10090000      -0.26460000
C        2.93640000       5.61060000      -0.16170000
C        3.13060000       6.27840000       1.17760000
C        4.23160000       6.31690000       0.14490000
H       -0.10450000      -2.27330000      -0.06600000
H       -0.69570000       1.88270000      -0.50780000
H       -0.29750000       1.75020000       1.19410000
H        2.14250000       1.54730000       0.60790000
H        1.74390000       1.68340000      -1.09540000
H        0.76610000       3.96890000      -0.68480000
H        1.16540000       3.83670000       1.01890000
H        3.60390000       3.66590000       0.44050000
H        3.20970000       3.78750000      -1.26570000
H        2.27120000       6.12700000      -0.85040000
H        2.58840000       7.19360000       1.38820000
H        3.27420000       5.64030000       2.04410000
H        5.11150000       5.70610000       0.32050000
H        4.43940000       7.25820000      -0.35200000
