13
Properties=species:S:1:pos:R:3 gdb_129986=T pbc="F F F"
N       -0.03620000       1.32380000       0.11470000
C       -0.04190000      -0.03940000       0.00080000
N       -1.11480000      -0.79210000      -0.01630000
C       -0.58160000      -2.06050000      -0.07440000
O       -1.36850000      -3.13500000      -0.10930000
N        0.72070000      -2.16210000      -0.10580000
N        1.09460000      -0.82360000      -0.04270000
C        2.42410000      -0.41640000       0.03570000
O        3.37320000      -1.14550000      -0.00660000
H        0.68480000       1.82930000      -0.37620000
H       -0.95590000       1.72460000      -0.00190000
H       -2.27950000      -2.81850000      -0.07800000
H        2.49440000       0.68110000       0.15230000
