21
Properties=species:S:1:pos:R:3 gdb_83234=T pbc="F F F"
C        0.16730000       1.59870000      -0.32780000
C        0.06680000       0.12690000       0.00960000
C        1.23600000      -0.82120000      -0.04300000
O        2.53110000      -0.27300000      -0.07480000
C        2.81030000       0.39390000       1.15340000
C        1.62770000       0.15170000       2.14600000
C        2.04560000      -0.74760000       3.31480000
O        1.09240000       1.37960000       2.64400000
C        0.58670000      -0.53890000       1.28100000
H        1.18940000       1.97040000      -0.24700000
H       -0.15730000       1.76310000      -1.36100000
H       -0.46230000       2.20270000       0.33100000
H       -0.86690000      -0.32800000      -0.31580000
H        1.18030000      -1.77180000      -0.56320000
H        3.76290000       0.01110000       1.54110000
H        2.91490000       1.47270000       0.98610000
H        2.84940000      -0.27880000       3.89620000
H        1.19820000      -0.92480000       3.98310000
H        2.41780000      -1.71180000       2.95450000
H        1.72090000       1.74330000       3.27720000
H       -0.05400000      -1.26340000       1.77090000
