18
Properties=species:S:1:pos:R:3 gdb_112303=T pbc="F F F"
C       -0.03150000       1.59590000      -0.02370000
C        0.03450000       0.07070000       0.09370000
C       -1.33360000      -0.59440000      -0.00070000
O       -1.93560000      -0.33330000      -1.28310000
C       -2.48040000      -1.46590000      -1.82120000
O       -3.08880000      -1.47060000      -2.84440000
N       -2.22060000      -2.60770000      -0.98940000
C       -0.76220000      -2.91380000      -0.98250000
C       -1.36790000      -2.11370000       0.10340000
H        0.96690000       2.03600000       0.04880000
H       -0.46770000       1.89210000      -0.98120000
H       -0.64640000       2.02740000       0.77370000
H        0.68500000      -0.34240000      -0.68530000
H        0.47490000      -0.21730000       1.05680000
H       -1.99930000      -0.17010000       0.76300000
H       -0.53330000      -3.96130000      -0.81980000
H       -0.14430000      -2.41590000      -1.72410000
H       -1.53300000      -2.55520000       1.08030000
