16
Properties=species:S:1:pos:R:3 gdb_130330=T pbc="F F F"
N        0.57160000       1.41450000      -0.05520000
C        0.29950000       0.06660000      -0.01240000
N       -0.89850000      -0.43580000       0.15270000
O       -0.71540000      -1.80500000       0.20770000
N        0.59490000      -2.13190000       0.06150000
C        1.25050000      -1.01130000      -0.07120000
C        2.74020000      -0.99120000      -0.22540000
C        3.25230000      -0.33750000      -1.51850000
O        3.08590000       1.08100000      -1.54350000
H        1.33340000       1.64070000      -0.68650000
H       -0.25060000       1.98680000      -0.18690000
H        3.19570000      -0.47410000       0.63080000
H        3.08970000      -2.02780000      -0.19170000
H        4.31010000      -0.59610000      -1.65890000
H        2.69980000      -0.71790000      -2.38220000
H        3.71060000       1.46280000      -0.91750000
