21
Properties=species:S:1:pos:R:3 gdb_120669=T pbc="F F F"
O        0.00470000       1.45470000       0.28360000
C        0.01690000       0.03580000       0.33630000
C       -1.27650000      -0.46710000      -0.29620000
C       -1.38390000      -1.97590000      -0.28460000
C       -1.86750000      -2.71980000       0.96100000
C       -2.70970000      -2.66430000      -0.27140000
C       -4.11660000      -2.11340000      -0.48450000
C       -4.31640000      -3.39850000      -1.31690000
O       -2.95870000      -3.82810000      -1.06370000
H        0.81860000       1.77740000       0.68100000
H        0.88050000      -0.37730000      -0.21030000
H        0.08520000      -0.32780000       1.37390000
H       -2.11970000      -0.02300000       0.24680000
H       -1.33200000      -0.08690000      -1.32390000
H       -0.62210000      -2.50150000      -0.85700000
H       -1.39780000      -3.66810000       1.19950000
H       -2.17740000      -2.13370000       1.82200000
H       -4.73240000      -2.03450000       0.41330000
H       -4.17340000      -1.17870000      -1.04600000
H       -5.04760000      -4.11190000      -0.92020000
H       -4.50180000      -3.25030000      -2.38680000
