18
Properties=species:S:1:pos:R:3 gdb_23434=T pbc="F F F"
C        0.24840000       0.84790000       0.46700000
O       -0.11220000      -0.11570000      -0.50660000
C       -1.34070000      -0.70870000      -0.25550000
C       -1.60040000      -2.08990000      -0.71940000
C       -0.32670000      -2.95080000      -0.59360000
C       -0.33550000      -2.63170000       0.89530000
N        0.29120000      -3.04290000       1.91710000
O        1.33120000      -3.92010000       1.54340000
C       -1.54110000      -1.76700000       0.81690000
H        1.21980000       1.25030000       0.17210000
H       -0.48110000       1.67060000       0.50860000
H        0.32970000       0.39720000       1.46500000
H       -2.19080000      -0.02590000      -0.33230000
H       -2.46800000      -2.35190000      -1.31110000
H       -0.50180000      -4.01580000      -0.76730000
H        0.54050000      -2.62350000      -1.16970000
H        1.69840000      -4.16900000       2.39800000
H       -2.32850000      -1.69810000       1.55690000
