18
Properties=species:S:1:pos:R:3 gdb_111478=T pbc="F F F"
C        0.03220000       1.25240000      -0.26950000
O       -0.05930000      -0.14440000      -0.03030000
C        0.63520000      -0.58560000       1.11230000
C        0.20040000      -1.97250000       1.52290000
C        0.52770000      -3.07470000       0.58450000
N        1.37240000      -2.85920000       1.76530000
C        2.58730000      -2.09400000       1.46040000
C        2.16160000      -0.74700000       0.87050000
O        2.86820000       0.04970000       0.31130000
H        1.06000000       1.56410000      -0.47790000
H       -0.59740000       1.45970000      -1.13780000
H       -0.34850000       1.82490000       0.59080000
H        0.49660000       0.12510000       1.94620000
H       -0.62350000      -2.07530000       2.22090000
H       -0.05910000      -3.98750000       0.60340000
H        0.91800000      -2.80530000      -0.39540000
H        3.14560000      -1.91240000       2.38820000
H        3.25240000      -2.63180000       0.77820000
