22
Properties=species:S:1:pos:R:3 gdb_101098=T pbc="F F F"
C       -0.02230000       1.56430000      -0.00800000
C        0.04740000       0.03100000      -0.00770000
C        0.70720000      -0.49850000      -1.28290000
O       -0.08390000      -0.09820000      -2.39210000
C        0.75600000      -0.50000000       1.22330000
C        2.22120000      -0.29780000       1.70090000
N        1.64820000      -1.18150000       2.82030000
C        0.41380000      -0.26860000       2.71630000
C        0.98830000      -1.96610000       1.67500000
H        0.98310000       2.00130000       0.01560000
H       -0.52360000       1.92060000      -0.91010000
H       -0.56940000       1.93650000       0.86350000
H       -0.97870000      -0.36350000       0.00320000
H        1.73170000      -0.09750000      -1.36000000
H        0.78630000      -1.59590000      -1.23190000
H        0.35760000      -0.38360000      -3.19700000
H        3.02360000      -0.78150000       1.13580000
H        2.52350000       0.69550000       2.04480000
H        0.57440000       0.72780000       3.13780000
H       -0.49930000      -0.72390000       3.11130000
H        0.11920000      -2.55110000       1.99090000
H        1.69440000      -2.58060000       1.10870000
