13
Properties=species:S:1:pos:R:3 gdb_15851=T pbc="F F F"
C       -0.27570000       1.51010000      -0.03470000
C        0.07770000       0.04360000      -0.00510000
O        1.30020000      -0.24920000      -0.77520000
C        1.97060000      -0.71940000       0.31180000
O        3.08090000      -1.12060000       0.39050000
C        0.75710000      -0.54450000       1.26670000
C        0.93350000       0.31130000       2.42170000
N        1.06620000       1.00920000       3.33320000
H        0.54200000       2.12330000       0.35260000
H       -0.49110000       1.81840000      -1.06130000
H       -1.16490000       1.69390000       0.57570000
H       -0.73290000      -0.58500000      -0.38010000
H        0.35440000      -1.51380000       1.57160000
