19
Properties=species:S:1:pos:R:3 gdb_12065=T pbc="F F F"
C       -0.07260000       1.61150000       0.06000000
C        0.01080000       0.08770000       0.03500000
C       -1.36550000      -0.53140000      -0.19850000
O       -1.82490000      -0.11790000      -1.47760000
C        1.07940000      -0.58900000      -0.87660000
N        1.64650000      -1.39280000       0.26710000
C        2.17360000      -0.39340000       1.21210000
C        0.71720000      -0.62370000       1.19650000
H        0.91100000       2.06970000       0.19510000
H       -0.49860000       1.98190000      -0.87640000
H       -0.71660000       1.95220000       0.87950000
H       -1.28720000      -1.62790000      -0.13890000
H       -2.05450000      -0.20240000       0.59760000
H       -2.67760000      -0.53020000      -1.64110000
H        0.65620000      -1.24050000      -1.64240000
H        1.81450000       0.07660000      -1.34160000
H        2.73670000      -0.83620000       2.02830000
H        2.59540000       0.53080000       0.82290000
H        0.20620000      -1.11690000       2.02000000
