22
Properties=species:S:1:pos:R:3 gdb_117083=T pbc="F F F"
C       -0.24660000       1.48790000      -0.23790000
C       -0.03760000       0.00110000      -0.02260000
O       -1.32960000      -0.62860000      -0.04580000
C       -1.36490000      -1.97290000       0.10140000
N       -0.30100000      -2.63750000       0.28020000
C       -2.82760000      -2.44170000       0.03780000
C       -2.93460000      -3.94550000      -0.20430000
C       -3.53370000      -2.03780000       1.34650000
O       -3.46560000      -1.81860000      -1.07550000
H        0.71820000       2.00340000      -0.22320000
H       -0.72350000       1.68160000      -1.20330000
H       -0.87560000       1.91420000       0.54910000
H        0.58750000      -0.44590000      -0.80200000
H        0.44170000      -0.21330000       0.93800000
H       -0.50200000      -3.63070000       0.36270000
H       -2.54330000      -4.51870000       0.64080000
H       -3.98780000      -4.20750000      -0.33290000
H       -2.39830000      -4.23110000      -1.11280000
H       -3.46410000      -0.95730000       1.49800000
H       -4.58980000      -2.31510000       1.28770000
H       -3.08440000      -2.53470000       2.21240000
H       -3.18760000      -0.89530000      -1.06910000
