12
Properties=species:S:1:pos:R:3 gdb_945=T pbc="F F F"
N       -0.01550000       1.34290000       0.13300000
C        0.00260000      -0.01810000       0.04920000
N       -1.19110000      -0.63840000       0.03240000
C       -1.14960000      -1.96730000      -0.00040000
C        0.03850000      -2.69070000      -0.02000000
C        1.20660000      -1.93530000      -0.01400000
N        1.21240000      -0.60570000       0.01850000
H        0.84080000       1.82530000      -0.08010000
H       -0.88690000       1.80180000      -0.07010000
H       -2.11260000      -2.47450000      -0.01440000
H        0.05300000      -3.77230000      -0.04800000
H        2.18280000      -2.41610000      -0.03930000
