18
Properties=species:S:1:pos:R:3 gdb_126415=T pbc="F F F"
C       -0.03590000       1.55370000       0.06000000
C        0.02580000       0.02730000      -0.02920000
C        0.73480000      -0.46340000      -1.24930000
N        1.25990000       0.29780000      -2.16300000
N        1.79360000      -0.58520000      -3.07640000
C        1.61100000      -1.90600000      -2.74920000
O        1.95170000      -2.91810000      -3.32830000
N        0.90880000      -1.80100000      -1.53790000
C        0.48190000      -2.96090000      -0.78800000
H        0.96790000       1.98440000       0.07870000
H       -0.55720000       1.97440000      -0.80300000
H       -0.56300000       1.85680000       0.96840000
H        0.52450000      -0.38450000       0.85910000
H       -0.98860000      -0.39450000      -0.01620000
H        2.26530000      -0.24450000      -3.89470000
H        0.81210000      -3.83510000      -1.35290000
H        0.93620000      -2.98310000       0.20760000
H       -0.60720000      -2.99060000      -0.68290000
