15
Properties=species:S:1:pos:R:3 gdb_33910=T pbc="F F F"
N        0.19610000      -1.14250000       0.13760000
C        0.09370000       0.00590000       0.03700000
C       -0.08450000       1.42060000      -0.05530000
C        0.24400000       2.22940000      -1.25010000
N        1.09410000       2.41960000      -0.06840000
C        0.35470000       3.24330000       0.97780000
C       -0.67290000       4.29350000       0.53480000
O       -1.71670000       3.27710000       0.46610000
C       -0.82990000       2.27890000       0.99940000
H        0.77120000       1.72230000      -2.05130000
H       -0.46800000       2.98340000      -1.56730000
H        1.00700000       3.45030000       1.82240000
H       -0.89970000       5.03620000       1.30810000
H       -0.51160000       4.80220000      -0.42150000
H       -1.22130000       1.75090000       1.86930000
