22
Properties=species:S:1:pos:R:3 gdb_107246=T pbc="F F F"
C        2.63260000       1.56970000       0.46290000
C        1.34710000       1.35990000      -0.34510000
C        1.46590000       0.38130000      -1.48060000
N        2.18230000      -0.91620000      -1.37020000
C        2.55470000       0.06710000      -2.42830000
C        1.55100000      -0.06060000      -3.60520000
C        0.47780000      -1.08410000      -3.32550000
C        0.40970000       0.26060000      -2.64780000
C       -0.73200000       1.22220000      -2.81630000
H        2.93600000       0.66220000       0.99560000
H        3.46200000       1.87860000      -0.18220000
H        2.48780000       2.35050000       1.21490000
H        0.54310000       1.03120000       0.32850000
H        1.02060000       2.32500000      -0.75150000
H        2.87210000      -0.81630000      -0.62630000
H        3.56580000       0.44930000      -2.49500000
H        1.73420000       0.34920000      -4.59060000
H       -0.23940000      -1.20780000      -4.13210000
H        0.70960000      -1.98330000      -2.77000000
H       -1.52410000       1.04670000      -2.07770000
H       -0.41110000       2.26580000      -2.71520000
H       -1.18070000       1.11340000      -3.80910000
