16
Properties=species:S:1:pos:R:3 gdb_105166=T pbc="F F F"
O        0.75060000       0.61260000       0.29970000
C       -0.15970000       0.22370000      -0.71400000
C       -1.42480000      -0.35960000      -0.11350000
N       -2.12150000      -1.40580000      -0.86140000
C       -1.43380000      -1.79830000       0.37460000
C       -0.24790000      -2.60410000       0.28390000
C        0.76760000      -3.24840000       0.25060000
C       -2.27080000       0.55830000       0.71100000
O       -3.42430000       0.31610000       0.98300000
H        1.08160000      -0.19630000       0.70720000
H       -0.39580000       1.13160000      -1.27960000
H        0.26970000      -0.50260000      -1.41370000
H       -3.11800000      -1.32010000      -0.65090000
H       -2.05850000      -1.98120000       1.24580000
H        1.64780000      -3.84190000       0.20700000
H       -1.76670000       1.48120000       1.05790000
