20
Properties=species:S:1:pos:R:3 gdb_12922=T pbc="F F F"
C        0.02200000       1.42460000      -0.29820000
C       -0.00990000      -0.00930000       0.24460000
C       -1.38580000      -0.63890000       0.14170000
C       -1.98970000      -1.24600000      -1.11560000
C       -0.93960000      -2.03010000      -1.91360000
C       -0.67520000      -2.93060000      -0.66210000
C       -1.71120000      -2.10660000       0.11510000
O       -2.64410000      -2.67520000       0.96930000
H        1.01980000       1.86490000      -0.20430000
H       -0.26090000       1.44970000      -1.35570000
H       -0.67910000       2.06830000       0.24460000
H        0.72840000      -0.61680000      -0.28960000
H        0.30770000      -0.00910000       1.29600000
H       -2.15060000      -0.09930000       0.70060000
H       -2.93950000      -0.89740000      -1.50290000
H       -1.37010000      -2.59190000      -2.74500000
H       -0.08810000      -1.45550000      -2.29110000
H       -1.02790000      -3.95250000      -0.81720000
H        0.34390000      -2.96570000      -0.26240000
H       -2.31540000      -2.59930000       1.87150000
