19
Properties=species:S:1:pos:R:3 gdb_76251=T pbc="F F F"
C       -0.02530000       1.60380000       0.18900000
C        0.06740000       0.09130000       0.04760000
C        0.75410000      -0.50880000      -1.22820000
C        1.27640000       0.40610000      -2.32880000
C        1.80630000      -1.09140000      -0.26290000
O        2.80310000      -1.74120000      -0.37310000
N        1.13560000      -0.54950000       0.84740000
C        1.29020000      -0.61590000       2.22000000
N        2.25640000      -1.21960000       2.78000000
H        0.94540000       2.08270000       0.03660000
H       -0.73280000       2.01060000      -0.54050000
H       -0.38460000       1.88010000       1.18570000
H       -0.91060000      -0.36310000       0.24520000
H        0.15090000      -1.31210000      -1.66310000
H        1.90510000       1.20840000      -1.93320000
H        1.88620000      -0.17540000      -3.02610000
H        0.45570000       0.85940000      -2.89330000
H        0.47800000      -0.08730000       2.73720000
H        2.17010000      -1.14820000       3.79250000
