16
Properties=species:S:1:pos:R:3 gdb_85720=T pbc="F F F"
N        0.01020000       1.47390000      -0.10490000
C       -0.05220000       0.04470000      -0.00660000
C        0.29310000      -0.75610000       1.29010000
C       -0.88040000      -1.72090000       0.94880000
C       -1.68060000      -2.26740000       2.02850000
N       -2.30460000      -2.70650000       2.89660000
C       -1.48680000      -0.60120000       0.02110000
C       -2.46310000       0.25000000       0.68150000
N       -3.20950000       0.95630000       1.21130000
H       -0.41800000       1.92590000       0.69700000
H        0.96670000       1.80090000      -0.17940000
H        0.48800000      -0.38430000      -0.85640000
H        1.28660000      -1.19700000       1.38410000
H        0.06570000      -0.17140000       2.18520000
H       -0.53320000      -2.54160000       0.31530000
H       -1.88810000      -0.94100000      -0.93540000
