15
Properties=species:S:1:pos:R:3 gdb_124230=T pbc="F F F"
C       -0.13610000       1.32220000      -0.10250000
C        0.09670000      -0.15690000      -0.02180000
N        1.23280000      -0.69230000      -0.06940000
O       -1.14990000      -0.78080000       0.10970000
C       -1.32180000      -2.11410000       0.17830000
N       -0.37080000      -3.03520000       0.32060000
N       -1.07140000      -4.17100000       0.34710000
N       -2.38360000      -4.06050000       0.23970000
C       -2.57880000      -2.74890000       0.12840000
H        0.82170000       1.83030000      -0.20260000
H       -0.77460000       1.56250000      -0.95830000
H       -0.65070000       1.67620000       0.79630000
H        1.19610000      -1.70690000       0.01090000
H       -0.61680000      -5.06360000       0.44540000
H       -3.56150000      -2.32150000       0.02250000
