11
Properties=species:S:1:pos:R:3 gdb_23759=T pbc="F F F"
O        0.10900000       1.34100000       0.10120000
C        0.07380000       0.00510000       0.04680000
N        0.08870000      -0.60060000      -1.13070000
C        0.05180000      -1.93790000      -1.12740000
N        0.00170000      -2.73070000      -0.06530000
C       -0.01320000      -2.10920000       1.12490000
C        0.02160000      -0.73670000       1.23520000
F        0.00670000      -0.12480000       2.41520000
H        0.14200000       1.65060000      -0.81580000
H        0.06480000      -2.41880000      -2.10150000
H       -0.05400000      -2.72260000       2.02120000
