19
Properties=species:S:1:pos:R:3 gdb_78963=T pbc="F F F"
C       -0.15220000       1.52570000       0.00690000
N        0.01630000       0.08210000       0.02120000
C        1.05420000      -0.52060000      -0.83300000
C        2.46530000      -0.08640000      -0.32030000
C        2.21480000      -0.10530000       1.14430000
N        2.71250000      -1.34520000       0.46010000
C        1.23610000      -1.66200000       0.20200000
C        0.71190000      -0.55470000       1.16680000
C       -0.01520000      -0.73420000       2.46970000
H        0.78950000       2.07570000       0.17460000
H       -0.56250000       1.83490000      -0.96000000
H       -0.86660000       1.82160000       0.78170000
H        0.86110000      -0.62010000      -1.90000000
H        3.27060000       0.44510000      -0.81210000
H        2.80830000       0.41090000       1.88950000
H        0.87930000      -2.68580000       0.12540000
H        0.57000000      -1.35830000       3.15230000
H       -0.18270000       0.23000000       2.96410000
H       -0.98770000      -1.20770000       2.30790000
