19
Properties=species:S:1:pos:R:3 gdb_103768=T pbc="F F F"
C       -0.17920000       1.61320000       0.12540000
C       -0.21170000       0.10350000       0.14100000
C       -1.40850000      -0.54590000      -0.52740000
O       -1.42210000      -0.27630000      -1.91840000
O        1.03800000      -0.54660000      -0.23800000
C        0.59210000      -0.66100000       1.09670000
C        1.39370000      -0.22720000       2.32110000
O        1.04630000      -1.45890000       2.99250000
C        0.35790000      -1.97820000       1.83380000
H        0.78510000       1.98880000       0.47430000
H       -0.35200000       1.97520000      -0.89190000
H       -0.96810000       2.02030000       0.76730000
H       -1.40250000      -1.62750000      -0.32870000
H       -2.33980000      -0.13410000      -0.12380000
H       -0.58720000      -0.60880000      -2.26870000
H        2.47240000      -0.13630000       2.14160000
H        1.03500000       0.65620000       2.86290000
H       -0.68020000      -2.25190000       2.05760000
H        0.87530000      -2.83700000       1.38750000
