18
Properties=species:S:1:pos:R:3 gdb_80527=T pbc="F F F"
C       -0.08080000       1.58690000      -0.10180000
C        0.03540000       0.08860000       0.08350000
N        1.19250000      -0.73410000      -0.25970000
C        2.43660000       0.03780000       0.11700000
C        2.05840000       0.06830000       1.61050000
O        2.06300000       1.34580000       2.20350000
C        0.73250000      -0.58780000       1.22130000
C        0.12780000      -1.70720000       1.96220000
O        0.38120000      -1.94810000       3.12010000
H        0.71380000       2.14150000       0.39370000
H       -0.08750000       1.83170000      -1.16970000
H       -1.03250000       1.92390000       0.32070000
H       -0.86800000      -0.44350000      -0.21630000
H        3.31960000      -0.55940000      -0.11140000
H        2.52120000       1.01340000      -0.36650000
H        2.65620000      -0.63960000       2.19550000
H        1.81060000       1.24700000       3.12790000
H       -0.59100000      -2.32390000       1.37780000
