20
Properties=species:S:1:pos:R:3 gdb_119198=T pbc="F F F"
C       -0.20870000       1.57880000      -0.04720000
C       -0.25130000       0.06280000      -0.25020000
C        1.00510000      -0.46910000      -0.95570000
C        0.96070000      -1.97040000      -1.17150000
O        0.03940000      -2.46570000      -2.15410000
C        1.43410000      -2.66810000      -2.39520000
C        2.05730000      -1.98670000      -3.58410000
C        0.97860000      -2.75020000       0.06160000
N        1.01510000      -3.34730000       1.05080000
H        0.64880000       1.87410000       0.56750000
H       -0.12860000       2.10700000      -1.00390000
H       -1.11430000       1.93370000       0.45330000
H       -0.36250000      -0.43810000       0.71880000
H       -1.12960000      -0.21210000      -0.84530000
H        1.11810000       0.02380000      -1.92490000
H        1.89860000      -0.22950000      -0.36550000
H        1.74700000      -3.70380000      -2.25280000
H        1.70130000      -0.96320000      -3.70800000
H        3.14760000      -1.97540000      -3.48490000
H        1.80970000      -2.54320000      -4.49370000
