23
Properties=species:S:1:pos:R:3 gdb_59564=T pbc="F F F"
C        0.00030000       1.50670000      -0.02480000
C        0.01570000      -0.02220000       0.12610000
C        0.75060000      -0.43240000       1.41000000
C       -1.41170000      -0.57980000       0.04670000
C       -1.57200000      -2.11870000      -0.01000000
C       -2.87880000      -2.36240000       0.74350000
C       -2.83770000      -2.27430000       2.25840000
C       -3.19470000      -1.06710000       1.43550000
O       -2.15750000      -0.15190000       1.20060000
H        1.01680000       1.91260000      -0.01170000
H       -0.47120000       1.80950000      -0.96590000
H       -0.56110000       1.96600000       0.79440000
H        0.55270000      -0.44510000      -0.73520000
H        0.84000000      -1.51840000       1.51080000
H        1.76430000      -0.01960000       1.41660000
H        0.22190000      -0.05460000       2.28930000
H       -1.89440000      -0.15350000      -0.84880000
H       -1.63280000      -2.46520000      -1.04540000
H       -0.72840000      -2.63480000       0.45900000
H       -3.65360000      -2.95940000       0.27780000
H       -3.62970000      -2.76970000       2.81100000
H       -1.86930000      -2.26910000       2.74780000
H       -4.18720000      -0.62860000       1.47300000
