16
Properties=species:S:1:pos:R:3 gdb_112372=T pbc="F F F"
C       -0.01230000       1.56370000      -0.06280000
C       -0.00320000       0.03760000       0.04400000
C       -1.40500000      -0.56410000       0.04490000
O       -2.08400000      -0.31440000      -1.20300000
C       -2.45520000      -1.47070000      -1.78160000
O       -3.02570000      -1.58840000      -2.81290000
O       -2.07020000      -2.53710000      -0.98820000
C       -1.42630000      -2.07290000       0.13810000
N       -0.94140000      -2.77140000       1.05860000
H        1.00860000       1.95480000      -0.06320000
H       -0.50160000       1.89030000      -0.98440000
H       -0.54420000       2.01620000       0.78110000
H        0.56430000      -0.40390000      -0.78350000
H        0.47950000      -0.29120000       0.97030000
H       -2.01070000      -0.12360000       0.84480000
H       -1.07580000      -3.76910000       0.89250000
