15
Properties=species:S:1:pos:R:3 gdb_45987=T pbc="F F F"
O       -0.16810000       0.01920000      -0.65670000
C       -0.09980000       1.15960000      -0.25750000
C       -1.27800000       1.92720000       0.33080000
N       -1.53660000       3.18230000      -0.34900000
C       -0.81030000       4.33740000      -0.16290000
O       -1.27210000       5.43270000      -0.43530000
C        0.57800000       4.18290000       0.32020000
C        1.39360000       3.12140000       0.19960000
N        1.10650000       1.84300000      -0.25430000
H       -2.14800000       1.28000000       0.22800000
H       -1.09090000       2.08270000       1.40370000
H       -2.47300000       3.34630000      -0.68760000
H        1.01390000       5.10640000       0.68000000
H        2.44040000       3.23850000       0.46520000
H        1.88630000       1.26170000      -0.52930000
