10
Properties=species:S:1:pos:R:3 gdb_21370=T pbc="F F F"
N       -0.04730000       1.37230000       0.01050000
C        1.27650000       1.74670000      -0.00090000
N        2.13760000       0.73710000      -0.01450000
C        1.31450000      -0.34310000      -0.01230000
C       -0.01420000      -0.00340000       0.00260000
N       -0.76490000      -1.12550000       0.00390000
N        0.00170000      -2.13160000      -0.00960000
O        1.42550000      -1.65850000      -0.02010000
H       -0.84500000       1.98490000       0.02190000
H        1.55960000       2.78900000       0.00190000
