20
Properties=species:S:1:pos:R:3 gdb_35863=T pbc="F F F"
N        0.06100000      -1.22480000       0.41870000
C        0.04460000      -0.08300000       0.23600000
C        0.02830000       1.36520000       0.00220000
C       -0.67570000       2.10820000       1.16660000
C        0.43940000       2.26050000       2.21090000
C        1.68500000       2.62100000       1.37470000
C        1.45430000       1.96610000       0.00030000
C        2.56700000       1.30540000      -0.76780000
C        1.98710000       2.60750000      -1.25800000
H       -0.48020000       1.53450000      -0.95190000
H       -0.99430000       3.09090000       0.80170000
H       -1.55830000       1.58040000       1.53350000
H        0.20750000       3.00820000       2.97320000
H        0.59070000       1.30440000       2.72410000
H        1.76370000       3.70860000       1.26410000
H        2.61060000       2.27800000       1.84540000
H        3.55740000       1.31780000      -0.32500000
H        2.33980000       0.39910000      -1.31960000
H        1.36900000       2.58850000      -2.15030000
H        2.58100000       3.50940000      -1.14760000
