21
Properties=species:S:1:pos:R:3 gdb_39158=T pbc="F F F"
C       -0.06200000       1.49450000       0.02380000
C        1.29700000       0.83860000       0.01550000
C        1.96470000       0.57980000       1.36970000
C        0.88350000      -0.12390000       2.24990000
C       -0.01520000      -0.76740000       1.23250000
C       -0.70840000      -1.89740000       1.10840000
C       -1.28710000      -2.03400000      -0.29000000
C       -0.54360000      -0.93380000      -1.11630000
C        0.04250000      -0.01390000      -0.04920000
H       -0.43090000       1.97230000       0.92750000
H       -0.36090000       1.99590000      -0.89170000
H        1.93230000       0.98640000      -0.85190000
H        2.81610000      -0.09490000       1.22400000
H        2.35110000       1.49100000       1.83890000
H        1.31480000      -0.83200000       2.96190000
H        0.33320000       0.61960000       2.84000000
H       -0.85060000      -2.64920000       1.87660000
H       -1.13010000      -3.03510000      -0.70780000
H       -2.37430000      -1.87180000      -0.29200000
H        0.25370000      -1.39290000      -1.71160000
H       -1.20900000      -0.41420000      -1.81070000
