20
Properties=species:S:1:pos:R:3 gdb_56634=T pbc="F F F"
C       -0.43190000       1.31310000       0.01700000
C        0.10020000      -0.13050000      -0.08590000
C        0.96940000      -0.26980000      -1.26320000
N        1.66080000      -0.35830000      -2.18530000
C        0.83380000      -0.59630000       1.17900000
C        2.13800000       0.11040000       1.49660000
C       -0.04260000      -1.02920000       2.34350000
C        0.72130000      -2.05370000       1.53720000
O        0.02560000      -2.87830000       0.64890000
H        0.38340000       2.03180000       0.12980000
H       -0.99560000       1.58090000      -0.88010000
H       -1.09260000       1.39950000       0.88370000
H       -0.74240000      -0.81030000      -0.24500000
H        1.97570000       1.16960000       1.72260000
H        2.61870000      -0.33960000       2.37020000
H        2.83660000       0.04480000       0.65620000
H        0.28380000      -0.79460000       3.35120000
H       -1.11820000      -1.00880000       2.19820000
H        1.59750000      -2.51410000       1.99350000
H       -0.45880000      -3.53300000       1.16240000
