17
Properties=species:S:1:pos:R:3 gdb_32230=T pbc="F F F"
C       -0.16020000       1.45580000       0.02140000
N        0.16410000       0.04750000       0.07130000
C        0.68830000      -0.60880000      -1.02480000
C        1.24410000       0.01270000      -2.13960000
C        1.78650000      -0.76610000      -3.16870000
C        1.74680000      -2.14280000      -3.06300000
N        1.20090000      -2.76550000      -2.00070000
C        0.70230000      -2.02600000      -1.03900000
O        0.14100000      -2.64860000       0.03360000
H        0.74810000       2.06060000      -0.08510000
H       -0.83750000       1.71740000      -0.80720000
H       -0.63710000       1.74200000       0.96100000
H       -0.42780000      -0.52920000       0.64710000
H        1.25960000       1.09380000      -2.20900000
H        2.22660000      -0.29380000      -4.03940000
H        2.15300000      -2.78490000      -3.83800000
H        0.21800000      -3.59590000      -0.14320000
