17
Properties=species:S:1:pos:R:3 gdb_11406=T pbc="F F F"
C       -0.10630000       1.42290000       0.06230000
O       -0.03760000       0.00640000       0.03820000
C        0.73900000      -0.54220000       1.04870000
C        0.71320000      -2.07900000       0.93970000
N        2.03920000      -2.45150000       0.43720000
C        2.72930000      -1.38590000       0.43040000
C        4.15280000      -1.24660000       0.01580000
O        2.13590000      -0.22630000       0.85970000
H        0.87650000       1.87500000      -0.11280000
H       -0.79020000       1.72100000      -0.73480000
H       -0.49670000       1.78530000       1.02490000
H        0.45660000      -0.12760000       2.02560000
H        0.53010000      -2.55910000       1.90690000
H       -0.07440000      -2.39070000       0.24840000
H        4.54500000      -2.21860000      -0.28130000
H        4.23720000      -0.54410000      -0.81940000
H        4.75000000      -0.84470000       0.84050000
