13
Properties=species:S:1:pos:R:3 gdb_129323=T pbc="F F F"
N        0.10240000       1.03450000      -0.83150000
C       -0.02530000       0.14560000       0.06680000
O        0.83860000      -0.02550000       1.08290000
N        1.50090000      -1.50610000       1.26310000
N        0.75570000      -2.36580000       1.61590000
C       -0.62880000      -2.38390000       1.81530000
C       -1.53010000      -1.66750000       1.12690000
C       -1.30330000      -0.66100000       0.08350000
N       -2.25610000      -0.46060000      -0.74300000
H        0.99510000       1.51890000      -0.72940000
H       -0.93150000      -3.16720000       2.49820000
H       -2.57730000      -1.90830000       1.28400000
H       -1.95400000       0.26220000      -1.40830000
