21
Properties=species:S:1:pos:R:3 gdb_122582=T pbc="F F F"
O       -0.07810000       1.43390000      -0.31050000
C       -0.04190000       0.06130000       0.02600000
C       -1.44530000      -0.52330000       0.08430000
O       -2.00570000      -0.34160000      -1.20390000
C       -3.39800000      -0.62420000      -1.30220000
C       -4.26200000       0.56520000      -0.79490000
C       -4.67640000       1.26900000      -2.06410000
C       -4.39000000       0.55470000      -3.15040000
C       -3.73040000      -0.75770000      -2.80750000
H       -0.65100000       1.49130000      -1.08490000
H        0.55700000      -0.51590000      -0.69650000
H        0.43860000      -0.02300000       1.00630000
H       -1.41960000      -1.59290000       0.35110000
H       -2.03090000       0.00730000       0.84970000
H       -3.61030000      -1.54970000      -0.75070000
H       -5.13650000       0.21690000      -0.22850000
H       -3.68790000       1.20700000      -0.11700000
H       -5.16600000       2.23650000      -2.05970000
H       -4.61270000       0.84600000      -4.17070000
H       -2.81170000      -0.94960000      -3.37150000
H       -4.40310000      -1.60490000      -2.99620000
