14
Properties=species:S:1:pos:R:3 gdb_123364=T pbc="F F F"
C        0.03180000      -0.64680000      -0.96680000
C        0.08400000       0.32340000      -0.25560000
C        0.16910000       1.53950000       0.56570000
N        1.35900000       2.36090000       0.37880000
C        1.71750000       2.65650000      -0.80830000
N        1.24800000       2.34350000      -2.07680000
N        2.04300000       2.87760000      -3.05550000
N        2.94300000       3.56870000      -2.49730000
N        2.77400000       3.48140000      -1.15250000
H       -0.01210000      -1.53050000      -1.55500000
H       -0.74410000       2.13380000       0.39600000
H        0.13670000       1.24380000       1.62030000
H        0.62040000       1.58570000      -2.29660000
H        3.41900000       3.92640000      -0.52310000
