22
Properties=species:S:1:pos:R:3 gdb_112795=T pbc="F F F"
C       -0.08820000       1.73650000      -0.08320000
C       -0.07880000       0.21220000       0.00400000
N        0.53500000      -0.38860000      -1.16570000
C       -0.17770000      -0.34410000      -2.45780000
C        0.33810000      -1.77330000      -2.77090000
C        1.53610000      -1.84390000      -3.71040000
C        0.64870000      -1.85070000      -1.23130000
C        1.98590000      -2.41550000      -0.80520000
O        2.19960000      -3.58900000      -0.63490000
H        0.93000000       2.12240000      -0.18660000
H       -0.66900000       2.07890000      -0.94620000
H       -0.53860000       2.17150000       0.81390000
H        0.49550000      -0.10580000       0.88330000
H       -1.11270000      -0.15960000       0.15100000
H       -1.27400000      -0.30930000      -2.34840000
H        0.13550000       0.46120000      -3.13180000
H       -0.43360000      -2.47720000      -3.08630000
H        2.30610000      -1.11830000      -3.42890000
H        1.98840000      -2.84060000      -3.70480000
H        1.22690000      -1.62190000      -4.73720000
H       -0.14940000      -2.39730000      -0.70260000
H        2.78200000      -1.64500000      -0.68480000
