27
Properties=species:S:1:pos:R:3 gdb_116493=T pbc="F F F"
C        0.20170000       1.56300000       0.06450000
C        0.05790000       0.04350000      -0.06890000
C       -1.39320000      -0.47720000       0.00390000
C       -2.18940000      -0.09140000      -1.26340000
C       -3.70910000       0.09590000      -1.09790000
C       -4.44560000      -0.94140000      -0.22620000
C       -3.92760000      -2.38720000      -0.31660000
C       -2.72130000      -2.66290000       0.59660000
C       -1.38800000      -2.00650000       0.20910000
H        1.25390000       1.86190000       0.02030000
H       -0.32300000       2.10200000      -0.73090000
H       -0.20250000       1.91270000       1.02120000
H        0.50960000      -0.28960000      -1.01400000
H        0.64340000      -0.43220000       0.72780000
H       -1.86540000      -0.00850000       0.88110000
H       -1.79140000       0.83810000      -1.68510000
H       -1.99660000      -0.85880000      -2.02460000
H       -3.90570000       1.09250000      -0.68280000
H       -4.15330000       0.10150000      -2.10140000
H       -4.40180000      -0.63380000       0.82670000
H       -5.50840000      -0.91470000      -0.49390000
H       -4.73480000      -3.06660000      -0.01780000
H       -3.68790000      -2.64560000      -1.35700000
H       -2.99060000      -2.34790000       1.61490000
H       -2.55720000      -3.74640000       0.65340000
H       -1.01150000      -2.47030000      -0.71440000
H       -0.65660000      -2.25760000       0.98810000
