16
Properties=species:S:1:pos:R:3 gdb_95615=T pbc="F F F"
O       -0.00450000       1.41290000       0.06980000
C       -0.05540000       0.02070000       0.00600000
C       -1.48340000      -0.51980000      -0.11510000
C       -1.42340000      -2.03880000      -0.12650000
O       -0.61010000      -2.56700000      -1.19000000
C        0.54590000      -1.95690000      -1.56990000
N        1.41710000      -2.53010000      -2.28500000
C        0.74850000      -0.50040000      -1.17480000
O        1.48710000       0.23390000      -1.78520000
H        0.68290000       1.67900000      -0.56180000
H        0.39820000      -0.43050000       0.91130000
H       -2.08630000      -0.17780000       0.73150000
H       -1.94840000      -0.14020000      -1.03160000
H       -1.02930000      -2.41360000       0.82790000
H       -2.40940000      -2.48100000      -0.28090000
H        1.13650000      -3.49570000      -2.47420000
