20
Properties=species:S:1:pos:R:3 gdb_55354=T pbc="F F F"
C        0.75030000       0.36170000       0.66190000
C       -0.48220000       0.13170000      -0.19320000
O       -1.53490000       0.68090000       0.04650000
C       -0.37410000      -0.85380000      -1.35670000
C        0.89030000      -0.75130000      -2.25190000
C        1.08880000      -2.16470000      -2.85230000
C        0.50920000      -3.09580000      -1.80430000
N        0.96200000      -2.78140000      -0.43110000
C       -0.36340000      -2.31300000      -0.89580000
H        1.30170000      -0.57040000       0.81430000
H        1.42580000       1.05740000       0.14920000
H        0.45300000       0.80920000       1.61150000
H       -1.28140000      -0.70920000      -1.95320000
H        0.78380000       0.01970000      -3.01870000
H        1.75850000      -0.49380000      -1.64360000
H        0.52010000      -2.28200000      -3.78230000
H        2.13920000      -2.37310000      -3.07760000
H        0.28570000      -4.12810000      -2.05400000
H        0.83540000      -3.59830000       0.16060000
H       -1.25750000      -2.73010000      -0.44460000
