16
Properties=species:S:1:pos:R:3 gdb_127801=T pbc="F F F"
C       -0.01130000       1.40750000       0.09140000
N       -0.00860000      -0.03450000       0.03030000
N       -0.03770000      -0.67330000      -1.17490000
N       -0.02760000      -1.94700000      -0.93540000
C        0.00770000      -2.16970000       0.40690000
C        0.02020000      -0.94250000       1.04010000
N        0.05310000      -0.54380000       2.36610000
C        0.08420000      -1.38380000       3.45880000
N        0.08590000      -2.65080000       3.35510000
H        0.89490000       1.78720000       0.57670000
H       -0.03940000       1.76860000      -0.93660000
H       -0.89320000       1.78180000       0.62370000
H        0.02210000      -3.14870000       0.84720000
H        0.05470000       0.44410000       2.55530000
H        0.10640000      -0.81290000       4.39390000
H        0.11120000      -3.08200000       4.27560000
