18
Properties=species:S:1:pos:R:3 gdb_51598=T pbc="F F F"
N       -0.25470000       1.24950000       0.19770000
C       -0.29300000       0.00010000       0.35820000
O       -0.90710000      -0.77450000      -0.56730000
C       -0.88070000      -2.15940000      -0.33040000
C       -1.85400000      -2.74790000       0.65680000
C       -2.05780000      -2.93840000      -0.83710000
C       -3.19480000      -2.24180000      -1.56130000
C       -4.51960000      -2.93870000      -1.32930000
O       -5.27570000      -3.28540000      -2.19890000
H        0.23860000       1.68530000       0.97400000
H        0.12710000      -0.57320000       1.19450000
H        0.10840000      -2.59990000      -0.42810000
H       -1.54200000      -3.59230000       1.26090000
H       -2.51140000      -2.04640000       1.15960000
H       -1.81830000      -3.92500000      -1.22340000
H       -3.28250000      -1.21350000      -1.18810000
H       -3.01210000      -2.18900000      -2.63840000
H       -4.75930000      -3.11830000      -0.25530000
