13
Properties=species:S:1:pos:R:3 gdb_129403=T pbc="F F F"
N        0.75240000       0.04630000      -0.84960000
C       -0.02350000       0.14130000       0.26260000
N        0.09380000       0.85780000       1.30850000
N       -1.17970000      -0.69430000       0.20040000
C       -2.18180000      -0.71850000       1.13950000
N       -3.10400000      -1.57160000       0.86650000
O       -2.69110000      -2.17710000      -0.35330000
C       -1.51220000      -1.64600000      -0.76360000
O       -0.91420000      -1.96630000      -1.76010000
H        1.66630000       0.46250000      -0.82460000
H        0.56020000      -0.68920000      -1.51970000
H        0.92950000       1.43640000       1.27690000
H       -2.17170000      -0.07750000       2.00580000
