17
Properties=species:S:1:pos:R:3 gdb_2697=T pbc="F F F"
C        0.01850000       1.52270000      -0.05870000
C        0.01590000       0.00420000      -0.01350000
O        0.66670000      -0.48220000      -1.17090000
C        0.72070000      -1.88720000      -1.23220000
C        1.44900000      -2.26590000      -2.52670000
C        1.56300000      -3.70790000      -2.69590000
C        1.64320000      -4.90160000      -2.81010000
H        1.04320000       1.90370000      -0.08890000
H       -0.50630000       1.88090000      -0.94880000
H       -0.47860000       1.93110000       0.82620000
H        0.53210000      -0.35780000       0.89190000
H       -1.01700000      -0.38080000       0.03070000
H        1.25750000      -2.30140000      -0.36340000
H       -0.29150000      -2.32310000      -1.22860000
H        0.90950000      -1.82430000      -3.37300000
H        2.44310000      -1.80350000      -2.51610000
H        1.72150000      -5.95420000      -2.92350000
