21
Properties=species:S:1:pos:R:3 gdb_84829=T pbc="F F F"
C       -0.23140000       1.54070000       0.28760000
C        0.06210000       0.09410000      -0.05630000
C       -0.85590000      -0.96640000       0.50300000
C        0.55270000      -0.81980000       1.04500000
C        1.57810000      -1.90250000       0.76790000
O        1.33670000      -3.07200000       1.55480000
C        1.69060000      -2.24230000      -0.69510000
C        1.26110000      -1.45640000      -1.68110000
C        0.60980000      -0.11860000      -1.46220000
H        0.67720000       2.15230000       0.23850000
H       -0.95990000       1.97200000      -0.40970000
H       -0.64320000       1.63380000       1.29740000
H       -1.67940000      -0.65070000       1.13460000
H       -1.07450000      -1.82520000      -0.12470000
H        0.63440000      -0.38480000       2.03710000
H        2.55810000      -1.55380000       1.12220000
H        0.43560000      -3.35500000       1.36190000
H        2.17270000      -3.19270000      -0.90810000
H        1.39990000      -1.76540000      -2.71460000
H       -0.19540000       0.02670000      -2.19620000
H        1.34370000       0.67220000      -1.68280000
