20
Properties=species:S:1:pos:R:3 gdb_61656=T pbc="F F F"
C       -0.12850000       1.58190000      -0.07370000
C       -0.06620000       0.04370000       0.00520000
C        0.75770000      -0.49020000       1.20270000
C        2.22760000      -0.08690000       1.17260000
C        2.66790000       1.28420000       1.74400000
O        3.61290000       0.66170000       2.63320000
C        3.13650000      -0.65370000       2.28840000
C       -1.42240000      -0.51500000       0.04880000
N       -2.49120000      -0.95250000       0.09600000
H        0.87430000       1.99550000      -0.20570000
H       -0.74170000       1.90230000      -0.91930000
H       -0.56140000       2.00130000       0.83880000
H        0.39760000      -0.33060000      -0.91740000
H        0.29500000      -0.15310000       2.13850000
H        0.69060000      -1.58460000       1.20210000
H        2.64850000      -0.26930000       0.17860000
H        3.15330000       1.98080000       1.05020000
H        1.88170000       1.82020000       2.29380000
H        2.59070000      -1.12330000       3.11920000
H        3.94830000      -1.31960000       1.97510000
