18
Properties=species:S:1:pos:R:3 gdb_78989=T pbc="F F F"
C        0.02510000       1.64630000       0.02090000
C        0.03760000       0.12660000      -0.00560000
C        0.73110000      -0.64450000      -1.16290000
C        2.23240000      -0.31550000      -1.04450000
C        2.59200000      -1.56200000      -0.32880000
N        2.42880000      -0.29540000       0.44930000
C        1.01300000      -0.66440000       0.88940000
C        1.08130000      -1.83180000      -0.15670000
O        0.52140000      -3.08560000      -0.11700000
H        1.03830000       2.04610000      -0.07800000
H       -0.58300000       2.05160000      -0.79520000
H       -0.39070000       2.02060000       0.96260000
H       -0.97410000      -0.27730000       0.13710000
H        0.29190000      -0.78790000      -2.14900000
H        2.84360000       0.34990000      -1.64180000
H        3.48420000      -2.17500000      -0.29860000
H        0.91550000      -0.75790000       1.97060000
H       -0.43840000      -3.00400000      -0.08040000
