15
Properties=species:S:1:pos:R:3 gdb_61347=T pbc="F F F"
C       -0.02570000       1.56690000      -0.01700000
C        0.00020000       0.03740000      -0.00640000
O        0.73660000      -0.46030000       1.12740000
C        2.06910000      -0.61660000       0.95400000
N        2.65140000      -0.31300000      -0.13430000
C        2.68870000      -1.15050000       2.13280000
C        3.25300000      -1.59470000       3.09630000
C       -1.34930000      -0.53290000       0.09840000
N       -2.42320000      -0.95460000       0.14390000
H        0.99230000       1.93800000      -0.14530000
H       -0.64050000       1.92290000      -0.84770000
H       -0.44230000       1.94630000       0.91870000
H        0.47400000      -0.33350000      -0.92020000
H        3.64670000      -0.51330000      -0.08360000
H        3.74680000      -1.98950000       3.95090000
