17
Properties=species:S:1:pos:R:3 gdb_74774=T pbc="F F F"
N       -0.00570000       1.29840000       0.08150000
C       -0.03140000      -0.06410000       0.03270000
N       -1.09270000      -0.79390000       0.02570000
C       -0.54010000      -2.18580000      -0.00670000
C        0.71850000      -2.06770000       0.89050000
C        1.24050000      -0.92160000      -0.01320000
N        1.25180000      -1.55780000      -1.36910000
C        0.20390000      -2.30630000      -1.34350000
N       -0.21540000      -3.11950000      -2.35470000
H        0.81520000       1.75460000      -0.28240000
H       -0.87830000       1.76390000      -0.12220000
H       -1.29270000      -2.93880000       0.22440000
H        0.47270000      -1.77440000       1.91450000
H        1.37830000      -2.93900000       0.87930000
H        2.18650000      -0.43850000       0.22880000
H        0.20460000      -2.95320000      -3.25780000
H       -1.19430000      -3.35500000      -2.37730000
