18
Properties=species:S:1:pos:R:3 gdb_128813=T pbc="F F F"
C       -0.15370000       1.43300000      -0.20670000
O       -0.08900000       0.03720000      -0.36340000
C       -1.19570000      -0.62490000       0.22150000
C       -1.01870000      -2.10090000       0.07060000
N       -2.03170000      -2.85900000      -0.33050000
N       -1.52320000      -4.11920000      -0.32180000
C       -0.21920000      -4.16430000       0.05390000
N        0.45930000      -5.38070000       0.17070000
C        0.14900000      -2.86100000       0.32380000
H        0.73860000       1.85710000      -0.67400000
H       -1.04570000       1.86020000      -0.69260000
H       -0.17280000       1.72670000       0.85570000
H       -1.26540000      -0.35130000       1.28980000
H       -2.14160000      -0.32410000      -0.25420000
H       -2.12590000      -4.89560000      -0.53330000
H        0.40590000      -5.95080000      -0.66590000
H        1.43200000      -5.23920000       0.40840000
H        1.11990000      -2.50230000       0.62250000
