19
Properties=species:S:1:pos:R:3 gdb_109718=T pbc="F F F"
O       -0.06780000       1.09830000      -0.84290000
C       -0.09440000       0.15080000       0.23550000
C       -1.46190000      -0.48620000       0.24160000
C       -1.88700000      -1.21640000      -1.01690000
O       -0.96290000      -1.33390000      -2.05590000
C       -1.61280000      -1.98750000       0.23200000
C       -0.56880000      -3.08240000       0.41040000
O       -1.53280000      -3.90870000       1.10490000
C       -2.54830000      -2.88420000       1.03210000
H        0.80340000       1.50780000      -0.86280000
H        0.68370000      -0.60960000       0.08960000
H        0.10300000       0.65130000       1.19350000
H       -2.23670000       0.07900000       0.75300000
H       -2.92610000      -1.11310000      -1.33250000
H       -0.60280000      -0.44670000      -2.19700000
H       -0.21020000      -3.54310000      -0.51670000
H        0.29010000      -2.83750000       1.05030000
H       -2.82730000      -2.51240000       2.02780000
H       -3.45080000      -3.23030000       0.51120000
