23
Properties=species:S:1:pos:R:3 gdb_119066=T pbc="F F F"
C        0.00230000       1.42030000      -0.04610000
O        0.17340000       0.02150000      -0.08540000
C        0.45130000      -0.54390000       1.19310000
C        0.52120000      -2.04610000       1.05640000
C       -0.75940000      -2.67350000       0.52430000
O       -0.97290000      -2.43370000      -0.85410000
C        1.82690000      -2.67950000       0.63330000
C        1.33620000      -2.85700000       2.04820000
C        2.07640000      -2.26470000       3.22980000
H        0.90740000       1.92480000       0.32510000
H       -0.19650000       1.75580000      -1.06640000
H       -0.84240000       1.70980000       0.59780000
H        1.39170000      -0.12560000       1.58010000
H       -0.34970000      -0.25950000       1.89740000
H       -0.71700000      -3.76180000       0.64540000
H       -1.61250000      -2.31540000       1.12850000
H       -0.79280000      -1.49410000      -0.98980000
H        1.78250000      -3.51590000      -0.05540000
H        2.67540000      -2.02000000       0.47820000
H        0.90270000      -3.83060000       2.26620000
H        2.58780000      -1.33200000       2.97600000
H        1.40210000      -2.06020000       4.06930000
H        2.84130000      -2.96400000       3.58490000
