19
Properties=species:S:1:pos:R:3 gdb_39472=T pbc="F F F"
C        0.01730000       1.57400000      -0.11170000
C        1.53480000       1.83020000      -0.00050000
O        1.97590000       1.96300000       1.35510000
C        1.80950000       0.82950000       2.19600000
C        0.37150000       0.32560000       2.37460000
O       -0.17650000      -0.46680000       1.33110000
C       -0.08850000       0.04190000      -0.00740000
C        1.21720000      -0.39870000      -0.65610000
C        2.10640000       0.59350000      -0.66910000
H       -0.56610000       2.11780000       0.63290000
H       -0.32750000       1.88180000      -1.10350000
H        1.84080000       2.76820000      -0.47040000
H        2.44590000      -0.00700000       1.87790000
H        2.16300000       1.16710000       3.17640000
H        0.35940000      -0.33300000       3.25040000
H       -0.27810000       1.18440000       2.60260000
H       -0.97190000      -0.35650000      -0.51510000
H        1.38430000      -1.41830000      -0.98440000
H        3.13670000       0.53000000      -1.00030000
