20
Properties=species:S:1:pos:R:3 gdb_36871=T pbc="F F F"
C        0.36960000       0.83080000      -0.68690000
N       -0.07350000       0.02070000       0.45040000
C       -1.04770000       0.64510000       1.33930000
C       -1.45480000      -0.44330000       0.40760000
C        1.54870000       1.67300000      -0.31340000
C        1.71010000       2.98550000      -0.45450000
C        3.07150000       3.39470000       0.02950000
O        3.68140000       2.19240000       0.49010000
C        2.80000000       1.08960000       0.29330000
H        0.65010000       0.13150000      -1.48700000
H       -0.43600000       1.47260000      -1.08520000
H       -0.91810000       0.44710000       2.39930000
H       -1.37930000       1.65460000       1.10150000
H       -2.06210000      -0.16040000      -0.45120000
H       -1.62690000      -1.45150000       0.77330000
H        0.98980000       3.68390000      -0.86340000
H        3.68310000       3.84710000      -0.76860000
H        3.02470000       4.12820000       0.85070000
H        2.59990000       0.58810000       1.25050000
H        3.26900000       0.34330000      -0.36950000
