23
Properties=species:S:1:pos:R:3 gdb_111607=T pbc="F F F"
C        0.22880000       1.71380000       0.03320000
C        0.09830000       0.19250000      -0.12500000
C        0.67420000      -0.53430000       1.08100000
C       -0.12860000      -1.16620000       2.19740000
C       -1.55650000      -1.67580000       1.94190000
C       -1.44630000      -2.93890000       1.07270000
C       -1.01310000      -2.85070000      -0.37020000
C        0.01220000      -3.12730000       0.70430000
C        0.81360000      -2.02270000       1.36380000
H        1.27920000       2.01430000       0.11540000
H       -0.20330000       2.24050000      -0.82350000
H       -0.28580000       2.06010000       0.93580000
H       -0.95920000      -0.04860000      -0.26240000
H        0.61150000      -0.12280000      -1.04220000
H        1.54300000       0.00110000       1.46520000
H        0.11340000      -0.88660000       3.21810000
H       -2.01200000      -1.94040000       2.90140000
H       -2.20730000      -0.91440000       1.49410000
H       -2.06580000      -3.78570000       1.34950000
H       -1.28650000      -3.69030000      -1.00250000
H       -1.01550000      -1.90510000      -0.89070000
H        0.46860000      -4.11100000       0.71870000
H        1.77320000      -2.33090000       1.76600000
