20
Properties=species:S:1:pos:R:3 gdb_40591=T pbc="F F F"
C       -0.05860000       1.26180000      -0.38040000
C        1.30380000       0.96960000       0.14430000
N        0.30180000      -0.08500000       0.04990000
C       -0.22710000      -0.61980000       1.28750000
C       -1.12870000       0.17930000       2.27270000
C       -2.42580000      -0.05070000       1.40970000
C       -3.20910000      -0.61410000       2.61040000
C       -1.77670000      -1.14930000       2.79710000
C       -1.57410000      -1.36210000       1.25690000
H       -0.71020000       1.85610000       0.25500000
H       -0.22680000       1.38500000      -1.44690000
H        2.15260000       0.87930000      -0.52830000
H        1.54420000       1.36310000       1.13120000
H        0.58050000      -1.18230000       1.77240000
H       -0.91120000       1.05770000       2.88400000
H       -2.78940000       0.58120000       0.59980000
H       -3.56750000       0.10810000       3.35150000
H       -3.98570000      -1.35360000       2.38890000
H       -1.36860000      -1.78370000       3.58570000
H       -1.85460000      -2.24860000       0.68630000
