20
Properties=species:S:1:pos:R:3 gdb_73217=T pbc="F F F"
C       -0.04220000       1.52400000      -0.01870000
C       -0.00350000       0.00370000       0.02800000
C       -1.31420000      -0.74820000       0.41260000
C       -0.48500000      -1.69500000       1.32320000
C        0.74200000      -0.74850000       1.17410000
C        1.98960000      -1.32580000       0.52000000
O        1.69140000      -1.40010000      -0.88720000
C        0.64220000      -0.58630000      -1.21550000
N        0.25540000      -0.36640000      -2.39760000
H        0.96350000       1.94960000      -0.10710000
H       -0.61890000       1.85460000      -0.88730000
H       -0.50560000       1.92850000       0.88690000
H       -1.98500000      -0.10100000       0.98450000
H       -1.87420000      -1.19490000      -0.41080000
H       -0.85660000      -1.84280000       2.33900000
H       -0.31060000      -2.67720000       0.87470000
H        0.96290000      -0.15800000       2.06450000
H        2.86800000      -0.68280000       0.65880000
H        2.23930000      -2.33550000       0.85960000
H        0.84470000      -0.86010000      -3.06990000
