19
Properties=species:S:1:pos:R:3 gdb_115523=T pbc="F F F"
C       -0.12370000       1.57020000      -0.10050000
C       -0.05680000       0.04140000       0.02900000
C        1.21390000      -0.57610000      -0.63230000
O        1.82400000      -0.82100000       0.64800000
C        0.59300000      -0.51330000       1.34560000
C        0.86740000       0.37480000       2.54500000
O        1.73820000      -0.29130000       3.44160000
C       -1.32330000      -0.57080000      -0.33350000
C       -2.37340000      -1.07660000      -0.62940000
H        0.84740000       2.02410000       0.11360000
H       -0.41030000       1.84140000      -1.12060000
H       -0.86670000       1.99370000       0.58070000
H        1.02540000      -1.50480000      -1.18250000
H        1.80730000       0.10700000      -1.25020000
H        0.10480000      -1.43620000       1.68370000
H        1.28880000       1.33750000       2.22310000
H       -0.06230000       0.57410000       3.08910000
H        2.51180000      -0.54880000       2.92580000
H       -3.29930000      -1.52630000      -0.89050000
