16
Properties=species:S:1:pos:R:3 gdb_46936=T pbc="F F F"
N       -0.08810000       1.25930000       0.24620000
C        0.00470000       0.02260000      -0.01570000
O        1.21220000      -0.54480000      -0.30850000
C        1.33340000      -1.88800000      -0.78510000
C        0.17110000      -2.77100000      -0.39430000
O       -0.06830000      -2.71420000       1.04330000
C       -1.33500000      -2.11100000       0.80020000
C       -1.21510000      -2.18740000      -0.69000000
C       -1.20960000      -0.83330000      -0.01020000
H        0.83290000       1.69880000       0.18530000
H        1.43450000      -1.87800000      -1.87980000
H        2.26510000      -2.27050000      -0.35730000
H        0.32430000      -3.80170000      -0.72730000
H       -2.14320000      -2.30950000       1.49300000
H       -1.90030000      -2.48740000      -1.47010000
H       -2.12850000      -0.26320000      -0.07560000
