19
Properties=species:S:1:pos:R:3 gdb_30142=T pbc="F F F"
C       -0.26830000       1.48730000      -0.20820000
N       -0.14190000       0.05820000       0.03710000
C        1.14780000      -0.55420000      -0.24600000
C        0.69930000      -0.39990000       1.16850000
C        1.36790000       0.51700000       2.12180000
C        0.99920000       0.65570000       3.44570000
N        1.82720000       1.57760000       4.02900000
C        2.72930000       2.04000000       3.10580000
C        2.47310000       1.40150000       1.91620000
H        0.64440000       2.06880000      -0.01100000
H       -0.55350000       1.63580000      -1.25500000
H       -1.06720000       1.89100000       0.42230000
H        1.12390000      -1.52800000      -0.72970000
H        1.95680000       0.09290000      -0.58350000
H        0.26630000      -1.27610000       1.64800000
H        0.21860000       0.16890000       4.00870000
H        1.78550000       1.86360000       4.99110000
H        3.47520000       2.77100000       3.37310000
H        3.02830000       1.53740000       1.00140000
