15
Properties=species:S:1:pos:R:3 gdb_4088=T pbc="F F F"
O       -0.03810000       1.33390000       0.00830000
N        0.01020000      -0.05210000       0.00470000
C       -1.14280000      -0.60350000       0.01160000
C       -1.24970000      -2.12180000       0.00870000
C       -2.73750000      -2.35150000       0.01880000
C       -3.43070000      -1.20500000       0.02660000
C       -2.51910000      -0.05410000       0.02280000
N       -2.79600000       1.20320000       0.02790000
O       -4.17970000       1.40360000       0.03820000
H        0.89680000       1.56970000       0.00220000
H       -0.76770000      -2.56020000      -0.87380000
H       -0.75510000      -2.56450000       0.88210000
H       -3.17100000      -3.34450000       0.01950000
H       -4.50520000      -1.09760000       0.03460000
H       -4.24390000       2.36480000       0.04100000
