18
Properties=species:S:1:pos:R:3 gdb_22832=T pbc="F F F"
O        0.03070000       1.26170000      -0.01790000
N        0.05510000      -0.13650000      -0.03830000
C       -1.09910000      -0.67260000       0.02670000
C       -2.43810000       0.00830000       0.06640000
C       -3.33390000      -0.58990000      -1.03770000
O       -3.38740000      -2.00100000      -0.96120000
C       -2.11680000      -2.59420000      -1.14720000
C       -1.13620000      -2.18320000      -0.02640000
O        0.11870000      -2.77340000      -0.24600000
H        0.96550000       1.48580000      -0.07550000
H       -2.91030000      -0.18050000       1.03810000
H       -2.33030000       1.08710000      -0.05730000
H       -4.36160000      -0.23250000      -0.93290000
H       -2.95880000      -0.27530000      -2.02520000
H       -2.26090000      -3.67710000      -1.13690000
H       -1.67830000      -2.30840000      -2.11690000
H       -1.56030000      -2.54230000       0.92630000
H        0.75980000      -2.04870000      -0.26290000
