16
Properties=species:S:1:pos:R:3 gdb_33752=T pbc="F F F"
C        0.08520000      -1.14110000      -0.03690000
C        0.03880000       0.05980000       0.00180000
C       -0.07130000       1.48440000       0.01970000
C       -0.67680000       2.43480000       1.09940000
C        0.01780000       3.30220000       0.02270000
O        1.15060000       2.33990000       0.02420000
C       -0.63910000       2.43740000      -1.06120000
C       -0.66480000       2.38250000      -2.51960000
N       -1.91820000       2.53040000      -1.71120000
H        0.13710000      -2.20190000      -0.06420000
H       -1.76500000       2.48360000       1.17860000
H       -0.16550000       2.39980000       2.06150000
H        0.25830000       4.36270000       0.03060000
H       -0.40760000       3.25350000      -3.11490000
H       -0.46820000       1.42540000      -2.99560000
H       -2.41570000       1.64320000      -1.66820000
