14
Properties=species:S:1:pos:R:3 gdb_374=T pbc="F F F"
C       -0.01600000       1.55840000       0.05280000
C       -0.03100000       0.03100000      -0.01920000
C        0.73390000      -0.50630000      -1.24530000
O        2.08840000      -0.05900000      -1.26980000
C        0.65100000      -1.96790000      -1.32490000
C        0.60720000      -3.16930000      -1.34440000
H        1.01050000       1.93290000       0.06050000
H       -0.52550000       1.99950000      -0.81130000
H       -0.52190000       1.91270000       0.95550000
H        0.42020000      -0.40140000       0.88310000
H       -1.05910000      -0.34670000      -0.06200000
H        0.28710000      -0.07450000      -2.15020000
H        2.56830000      -0.56000000      -0.60080000
H        0.56450000      -4.22990000      -1.38370000
