18
Properties=species:S:1:pos:R:3 gdb_38559=T pbc="F F F"
C       -0.05210000       1.57560000       0.10210000
C        1.49170000       1.33510000      -0.01410000
C        1.87840000       0.69680000       1.33130000
C        0.98720000      -0.52320000       1.12260000
C        1.47880000      -1.21040000      -0.17670000
C        0.24030000      -2.02510000      -0.60400000
C       -0.78800000      -1.18220000      -0.44170000
C       -0.05260000       0.05150000       0.03720000
N        1.16820000       0.11140000      -0.88650000
H       -0.43060000       2.07860000       0.99480000
H       -0.46420000       2.02040000      -0.80540000
H        2.14990000       2.08130000      -0.45660000
H        2.94270000       0.45220000       1.40380000
H        1.60220000       1.30640000       2.19700000
H        0.65610000      -1.11180000       1.97990000
H        2.46480000      -1.66800000      -0.28610000
H        0.24780000      -3.04700000      -0.95430000
H       -1.84390000      -1.31760000      -0.61900000
