20
Properties=species:S:1:pos:R:3 gdb_105428=T pbc="F F F"
C        0.05400000       1.54910000      -0.00360000
C       -0.03510000       0.02160000       0.01660000
C       -1.47480000      -0.54500000      -0.00590000
C       -2.27050000      -0.18540000      -1.31090000
C       -3.01020000      -1.45630000      -1.64300000
C       -2.59510000      -2.49080000      -0.91700000
C       -1.49720000      -2.11420000       0.04400000
C       -2.21560000      -0.03400000       1.15630000
N       -2.78520000       0.37360000       2.07660000
H        1.09920000       1.87080000       0.01570000
H       -0.40540000       1.96880000      -0.90430000
H       -0.44890000       1.98570000       0.86450000
H        0.48610000      -0.39780000      -0.85230000
H        0.47640000      -0.36580000       0.90530000
H       -2.93180000       0.67390000      -1.16540000
H       -1.57410000       0.08830000      -2.11510000
H       -3.76840000      -1.49520000      -2.41660000
H       -2.96130000      -3.50720000      -1.00430000
H       -0.52790000      -2.51620000      -0.28130000
H       -1.66320000      -2.48520000       1.06010000
