17
Properties=species:S:1:pos:R:3 gdb_9724=T pbc="F F F"
C       -0.05050000       1.52880000       0.01700000
C        0.03180000       0.00450000      -0.04980000
C        0.82890000      -0.55380000      -1.24710000
C        1.27350000      -1.92580000      -0.72190000
C        1.44590000      -1.67210000       0.78860000
O        0.73480000      -0.46150000       1.09500000
C       -1.34260000      -0.57060000      -0.05310000
N       -2.40350000      -1.02940000      -0.05670000
H        0.96220000       1.93920000       0.02690000
H       -0.59300000       1.92410000      -0.84580000
H       -0.56640000       1.84190000       0.92740000
H        0.24090000      -0.60390000      -2.16520000
H        1.68760000       0.10330000      -1.41770000
H        0.49280000      -2.67010000      -0.90120000
H        2.19160000      -2.28340000      -1.19230000
H        1.04840000      -2.49280000       1.39540000
H        2.49420000      -1.51600000       1.06730000
