19
Properties=species:S:1:pos:R:3 gdb_115397=T pbc="F F F"
O       -0.03090000       1.45810000       0.03780000
C       -0.04000000       0.05740000      -0.11520000
C       -1.45320000      -0.51180000      -0.05410000
O       -2.03440000      -0.00360000       1.13020000
C       -3.40240000      -0.37650000       1.28590000
C       -4.20030000       0.05380000       0.05010000
O       -4.26330000       1.46390000      -0.05100000
C       -3.51440000      -0.54380000      -1.18050000
O       -2.15770000      -0.10690000      -1.20290000
H       -0.53830000       1.64130000       0.83740000
H        0.38900000      -0.17040000      -1.09470000
H        0.56360000      -0.44700000       0.65540000
H       -1.43760000      -1.61810000      -0.00800000
H       -3.48410000      -1.46460000       1.44090000
H       -3.76410000       0.13860000       2.17830000
H       -5.23150000      -0.30760000       0.12890000
H       -3.36700000       1.75870000      -0.25690000
H       -3.56580000      -1.64470000      -1.16560000
H       -3.97560000      -0.17720000      -2.10010000
