18
Properties=species:S:1:pos:R:3 gdb_14228=T pbc="F F F"
C       -0.12150000       1.45860000       0.01210000
C        0.04380000      -0.05610000       0.02750000
C        0.84620000      -0.61310000      -1.14930000
C        2.15320000      -0.53750000      -0.37700000
C        1.22880000      -0.55840000       0.90950000
C        1.17090000      -2.10990000       0.79750000
C        1.56520000      -1.88820000      -0.66040000
O        2.08100000      -2.81510000      -1.54290000
H        0.83590000       1.95580000      -0.17880000
H       -0.82340000       1.77450000      -0.76750000
H       -0.50600000       1.82000000       0.97250000
H       -0.92190000      -0.53750000       0.23500000
H        0.70560000      -0.44740000      -2.21130000
H        3.11440000      -0.10440000      -0.60930000
H        1.45250000      -0.07970000       1.86110000
H        1.98360000      -2.59040000       1.34950000
H        0.21710000      -2.59900000       1.03250000
H        1.34660000      -3.27250000      -1.96710000
