18
Properties=species:S:1:pos:R:3 gdb_17780=T pbc="F F F"
C        0.06590000       1.53880000      -0.05550000
C        0.04560000       0.08400000       0.00030000
C        0.02820000      -1.12040000       0.04700000
C        0.03650000      -2.56900000       0.07830000
C       -0.09710000      -3.33360000       1.44520000
C       -1.59450000      -2.91120000       1.47100000
C       -1.31340000      -3.37160000       0.01150000
C       -0.53500000      -4.57370000       0.61630000
H        0.84850000       1.90020000      -0.73200000
H       -0.88970000       1.93850000      -0.41320000
H        0.25660000       1.97410000       0.93200000
H        0.81960000      -2.96870000      -0.57540000
H        0.61690000      -3.30200000       2.26920000
H       -2.26550000      -3.54480000       2.05690000
H       -1.80350000      -1.85080000       1.62020000
H       -2.01010000      -3.38410000      -0.82770000
H        0.22530000      -5.04100000      -0.01630000
H       -1.13320000      -5.32060000       1.14350000
