16
Properties=species:S:1:pos:R:3 gdb_127067=T pbc="F F F"
C       -0.30330000       1.36230000      -0.12580000
C       -0.68430000      -0.07340000      -0.43890000
O       -1.01310000      -0.71650000       0.79110000
C       -1.29660000      -2.09050000       0.68560000
C       -2.70740000      -2.36240000       0.24980000
N       -3.65390000      -2.79860000       1.03140000
O       -4.74680000      -2.87930000       0.24240000
N       -4.40320000      -2.46780000      -1.04570000
N       -3.18500000      -2.16400000      -1.03710000
H       -0.03450000       1.88920000      -1.04590000
H       -1.13970000       1.88820000       0.34290000
H        0.54980000       1.39500000       0.55760000
H       -1.53410000      -0.10880000      -1.13370000
H        0.15310000      -0.60630000      -0.91780000
H       -0.60660000      -2.59000000      -0.01090000
H       -1.16390000      -2.52520000       1.67940000
