15
Properties=species:S:1:pos:R:3 gdb_5709=T pbc="F F F"
C       -0.06170000       1.49500000       0.10100000
O        1.24450000       1.92890000      -0.29940000
C        2.11930000       0.82160000      -0.61320000
C        1.27940000      -0.39390000      -0.38620000
C        0.04180000       0.01010000       0.01970000
N       -0.73770000      -1.08990000       0.23160000
C        0.01810000      -2.21430000      -0.04480000
C        1.28070000      -1.81450000      -0.43270000
H       -0.27790000       1.87210000       1.11320000
H       -0.81450000       1.92730000      -0.57710000
H        2.46750000       0.93220000      -1.65040000
H        3.00350000       0.87720000       0.03840000
H       -1.69560000      -1.09960000       0.53500000
H       -0.40750000      -3.19980000       0.05820000
H        2.08820000      -2.47460000      -0.71040000
