19
Properties=species:S:1:pos:R:3 gdb_96862=T pbc="F F F"
C       -0.19630000       1.38440000       0.10530000
N       -0.19270000      -0.06800000       0.12850000
C        0.63690000      -0.63370000       0.90990000
N        1.57230000      -0.07700000       1.76790000
C        2.41160000      -1.04240000       2.48250000
C        2.35280000      -0.87510000       4.00140000
C        1.85790000      -2.37770000       1.99270000
O        0.49770000      -2.58440000       2.36430000
C        0.78320000      -2.11770000       1.02780000
H        0.81760000       1.81230000       0.04000000
H       -0.76870000       1.73500000      -0.75750000
H       -0.67370000       1.80640000       1.00370000
H        1.43980000       0.84880000       2.14010000
H        3.45510000      -0.95420000       2.14520000
H        1.33570000      -1.05600000       4.35710000
H        3.02960000      -1.58180000       4.49180000
H        2.65890000       0.13440000       4.29510000
H        2.49310000      -3.25830000       1.96960000
H        0.48790000      -2.76910000       0.21400000
