17
Properties=species:S:1:pos:R:3 gdb_43009=T pbc="F F F"
O        0.02130000       0.04670000       0.32560000
C       -0.01160000       1.23870000       0.09740000
C       -1.28710000       1.98680000      -0.04130000
C       -1.48010000       3.37730000       0.56550000
C       -1.31220000       3.24180000      -0.91290000
C       -0.04900000       3.68180000      -1.63740000
C        1.24840000       3.16970000      -1.05220000
O        1.43820000       3.30080000       0.35160000
C        1.27410000       1.97360000      -0.17930000
H       -2.15030000       1.33130000      -0.05400000
H       -2.47440000       3.58500000       0.94530000
H       -0.66630000       3.78850000       1.14480000
H       -2.21380000       3.36320000      -1.50570000
H       -0.09200000       3.33620000      -2.67850000
H       -0.00820000       4.77820000      -1.68000000
H        2.14230000       3.37990000      -1.64050000
H        2.15910000       1.34310000      -0.13140000
