19
Properties=species:S:1:pos:R:3 gdb_89856=T pbc="F F F"
O       -0.01020000       1.42030000       0.13170000
C        0.00200000       0.00030000       0.00540000
C       -1.42330000      -0.58210000       0.04940000
C       -2.07880000      -0.39920000      -1.30150000
C       -3.47290000       0.03270000      -1.43120000
O       -2.41030000       0.97690000      -1.61110000
C       -1.36960000      -1.13170000      -2.42180000
C        0.12460000      -0.94040000      -2.32090000
C        0.73150000      -0.43390000      -1.24780000
H       -0.61510000       1.75380000      -0.54320000
H        0.55800000      -0.34950000       0.88300000
H       -1.38080000      -1.65150000       0.28970000
H       -1.99190000      -0.07590000       0.83420000
H       -4.03230000      -0.20460000      -2.33550000
H       -4.07940000       0.17440000      -0.53730000
H       -1.61950000      -2.20290000      -2.39000000
H       -1.73550000      -0.75730000      -3.38450000
H        0.70960000      -1.22850000      -3.19120000
H        1.80710000      -0.27920000      -1.25150000
