15
Properties=species:S:1:pos:R:3 gdb_47306=T pbc="F F F"
O       -0.08210000      -0.04530000       0.79030000
C        0.02590000       0.95780000       0.14860000
C       -1.06800000       1.99610000      -0.02130000
C       -1.54430000       2.13900000      -1.47780000
C       -0.60900000       2.65520000      -2.56910000
O       -1.03870000       3.08890000      -3.59820000
O        0.74600000       2.52530000      -2.43660000
C        1.39020000       2.42030000      -1.18460000
O        1.19360000       1.18940000      -0.52900000
H       -1.90380000       1.65480000       0.59080000
H       -0.74940000       2.96300000       0.38280000
H       -1.88230000       1.15870000      -1.83780000
H       -2.42140000       2.78850000      -1.51670000
H        2.45440000       2.46140000      -1.41320000
H        1.11720000       3.26140000      -0.53970000
