15
Properties=species:S:1:pos:R:3 gdb_6451=T pbc="F F F"
O        0.12890000       1.40710000      -0.12260000
C        0.02970000       0.00930000      -0.02620000
C        0.23250000      -0.55960000       1.41100000
C       -1.31120000      -0.56730000       1.57540000
O       -1.67800000       0.67740000       2.16070000
C       -1.43050000      -0.53960000       0.01990000
C       -1.93600000      -1.68670000       2.28610000
N       -2.44780000      -2.57000000       2.82860000
H       -0.40130000       1.78090000       0.59300000
H        0.67310000      -0.40090000      -0.80590000
H        0.64460000      -1.57040000       1.40900000
H        0.76860000       0.06550000       2.12700000
H       -2.63600000       0.77440000       2.09630000
H       -2.21530000       0.10210000      -0.38760000
H       -1.51480000      -1.54410000      -0.40150000
