18
Properties=species:S:1:pos:R:3 gdb_53558=T pbc="F F F"
C        0.35800000       1.24640000      -0.81990000
C        0.11020000      -0.05080000      -0.20750000
C       -0.09410000      -1.12410000       0.29570000
C       -0.34230000      -2.42170000       0.91860000
C       -1.61150000      -3.07680000       0.44600000
N       -2.58650000      -3.41370000       1.18480000
C       -3.58070000      -4.03900000       0.29840000
C       -2.96060000      -3.93820000      -1.12020000
O       -1.66910000      -3.33220000      -0.88810000
H        1.39850000       1.33860000      -1.15040000
H       -0.28180000       1.39860000      -1.69610000
H        0.15900000       2.06390000      -0.11820000
H        0.49320000      -3.10200000       0.70410000
H       -0.41550000      -2.32800000       2.00560000
H       -3.75560000      -5.07490000       0.60840000
H       -4.53660000      -3.51130000       0.37680000
H       -2.80280000      -4.90590000      -1.60380000
H       -3.52500000      -3.29140000      -1.79820000
