15
Properties=species:S:1:pos:R:3 gdb_48026=T pbc="F F F"
O       -0.55840000       1.05390000      -0.79290000
C        0.23400000       1.09860000       0.11940000
C        1.43030000       1.90410000       0.11660000
C        2.43910000       2.56780000       0.14370000
C        3.66760000       3.39590000       0.14040000
O        4.50130000       3.05860000      -0.93900000
C        4.02990000       3.82140000      -2.05330000
C        3.25070000       4.99630000      -1.40820000
O        3.35640000       4.75900000      -0.00140000
H        0.08890000       0.50620000       1.04490000
H        4.22880000       3.26120000       1.06950000
H        4.90330000       4.14100000      -2.62580000
H        3.38230000       3.21210000      -2.69350000
H        3.69320000       5.97410000      -1.61070000
H        2.20090000       5.00400000      -1.72170000
