11
Properties=species:S:1:pos:R:3 gdb_756=T pbc="F F F"
N        0.09450000       1.40130000       0.15340000
C       -0.03890000       0.01430000       0.03910000
C       -1.14330000      -0.81710000      -0.00530000
C       -0.59910000      -2.12140000      -0.03420000
N        0.72650000      -2.12040000      -0.01620000
N        1.04630000      -0.80020000       0.03480000
H        0.72550000       1.80120000      -0.53190000
H       -0.80070000       1.86650000       0.08460000
H       -2.17920000      -0.52020000      -0.02860000
H       -1.13020000      -3.06160000      -0.07790000
H        2.01130000      -0.53070000       0.12020000
