16
Properties=species:S:1:pos:R:3 gdb_124900=T pbc="F F F"
C       -0.39310000       1.32270000      -0.85950000
C       -0.08130000       0.07120000      -0.07320000
C        1.14720000      -0.69870000      -0.35890000
O        1.06300000       0.13640000       0.79480000
C       -1.23400000      -0.63920000       0.53460000
N       -2.47120000      -0.56980000       0.03570000
N       -3.17290000      -1.33510000       0.86200000
N       -2.51020000      -1.89440000       1.86450000
C       -1.26380000      -1.46260000       1.67740000
H        0.52820000       1.76320000      -1.24720000
H       -1.06140000       1.09160000      -1.69340000
H       -0.89380000       2.05950000      -0.22450000
H        1.16910000      -1.76960000      -0.16320000
H        1.82160000      -0.35200000      -1.14120000
H       -4.16310000      -1.47320000       0.73970000
H       -0.46610000      -1.73150000       2.34930000
