16
Properties=species:S:1:pos:R:3 gdb_63455=T pbc="F F F"
C       -0.06860000       1.53190000      -0.07250000
C        0.04520000       0.02760000      -0.07400000
O       -1.01860000      -0.65430000      -0.64730000
C        1.34330000      -0.66330000      -0.25250000
C        0.71700000      -0.68300000       1.15980000
C        1.32530000       0.09620000       2.20100000
C        1.83460000       0.75740000       3.06630000
C        0.08950000      -1.90860000       1.58700000
N       -0.43320000      -2.87710000       1.94250000
H        0.79460000       1.99980000       0.40330000
H       -0.14730000       1.89040000      -1.10330000
H       -0.96520000       1.85020000       0.47130000
H       -1.81980000      -0.47020000      -0.14230000
H        1.32990000      -1.60330000      -0.79040000
H        2.24520000      -0.07140000      -0.34980000
H        2.28360000       1.33160000       3.83890000
