20
Properties=species:S:1:pos:R:3 gdb_111620=T pbc="F F F"
O        0.35700000       0.94490000       1.04000000
C        0.11230000       0.04920000      -0.03410000
C       -1.28900000      -0.52260000      -0.02700000
C       -1.63040000      -1.95260000      -0.28320000
C       -0.60140000      -3.07830000      -0.10030000
C       -0.41780000      -3.22280000       1.41830000
C        0.32320000      -2.15140000       2.18180000
C       -1.18810000      -2.08680000       2.04800000
N       -1.92790000      -1.34850000       1.02910000
H        0.03670000       0.52320000       1.84410000
H        0.22030000       0.64350000      -0.94830000
H        0.87670000      -0.73650000      -0.08590000
H       -2.01340000       0.20480000      -0.39310000
H       -2.48610000      -2.17430000      -0.91850000
H       -1.00730000      -4.00610000      -0.51300000
H        0.34090000      -2.88850000      -0.62490000
H       -0.43920000      -4.22310000       1.83620000
H        0.68140000      -2.43110000       3.16830000
H        0.97780000      -1.45940000       1.67510000
H       -1.77000000      -2.22810000       2.95210000
