17
Properties=species:S:1:pos:R:3 gdb_20819=T pbc="F F F"
C        0.05590000       1.50960000      -0.15860000
C       -0.06650000      -0.01300000       0.03640000
C        0.65270000      -0.52560000       1.24340000
C        0.22230000      -0.82890000       2.51710000
N        1.27990000      -1.24190000       3.26440000
N        2.35100000      -1.21440000       2.52700000
N        1.98800000      -0.77980000       1.29700000
C        2.99120000      -0.66880000       0.25920000
H        1.09770000       1.81670000      -0.29330000
H       -0.50480000       1.82980000      -1.04170000
H       -0.33740000       2.04400000       0.71070000
H       -1.12320000      -0.28070000       0.13500000
H        0.29540000      -0.52830000      -0.86190000
H       -0.77580000      -0.77780000       2.92290000
H        2.70760000      -1.25600000      -0.61910000
H        3.13770000       0.37310000      -0.04000000
H        3.92110000      -1.06020000       0.67120000
