23
Properties=species:S:1:pos:R:3 gdb_102302=T pbc="F F F"
C        1.36980000      -0.31410000      -1.20180000
C        0.35100000      -0.06800000      -0.08700000
C        0.80350000      -0.60150000       1.29280000
C       -0.20410000      -0.28610000       2.42680000
C       -0.40590000       1.20420000       2.70540000
C       -1.32680000       1.43320000       3.90470000
O        0.88970000       1.75710000       2.93510000
C        1.04770000      -2.04310000       1.24880000
C        1.21620000      -3.23390000       1.22020000
H        1.56240000      -1.38310000      -1.32930000
H        1.00970000       0.08370000      -2.15570000
H        2.32500000       0.17320000      -0.97680000
H        0.17100000       1.00800000       0.00570000
H       -0.60860000      -0.53140000      -0.34840000
H        1.74420000      -0.09990000       1.55190000
H       -1.17390000      -0.73840000       2.18920000
H        0.15320000      -0.76260000       3.34650000
H       -0.86110000       1.68020000       1.82200000
H       -2.31730000       1.00060000       3.72990000
H       -0.90080000       0.97890000       4.80480000
H       -1.46210000       2.50460000       4.09320000
H        0.78620000       2.69540000       3.12130000
H        1.38320000      -4.28210000       1.19630000
