19
Properties=species:S:1:pos:R:3 gdb_84430=T pbc="F F F"
C       -0.00280000       1.51120000       0.01880000
C       -0.04150000       0.00360000       0.06460000
C        1.23100000      -0.77450000      -0.20880000
C        0.61700000      -0.79010000       1.17960000
O        1.25120000      -0.15110000       2.24500000
C       -0.28750000      -1.94940000       1.44200000
C       -1.33180000      -1.95580000       0.61000000
C       -1.35470000      -0.73110000      -0.28200000
O       -2.52640000       0.05390000      -0.08750000
H        0.88620000       1.88240000       0.53540000
H        0.01600000       1.87770000      -1.01330000
H       -0.88390000       1.94000000       0.50240000
H        1.19600000      -1.68620000      -0.79770000
H        2.12740000      -0.17420000      -0.34090000
H        2.11830000      -0.55120000       2.36630000
H       -0.06170000      -2.69900000       2.19300000
H       -2.10070000      -2.71700000       0.54960000
H       -1.37610000      -0.99910000      -1.34540000
H       -2.65110000       0.14360000       0.86430000
