15
Properties=species:S:1:pos:R:3 gdb_51079=T pbc="F F F"
O        0.10830000      -0.00100000      -0.17170000
C        0.16330000       1.17390000      -0.35780000
O        0.87740000       1.99010000       0.47400000
C        0.89710000       3.34720000       0.19820000
C        0.42300000       4.48940000       1.15800000
C        0.99880000       5.25260000      -0.08400000
C        2.17360000       4.21540000      -0.06060000
C        0.25340000       4.20280000      -0.91870000
O       -0.43550000       4.09410000      -1.88490000
H       -0.32690000       1.72020000      -1.17890000
H       -0.64570000       4.57460000       1.35860000
H        1.02640000       4.58580000       2.06220000
H        1.06360000       6.32410000      -0.23170000
H        2.83150000       4.30320000       0.80580000
H        2.72410000       4.04720000      -0.98710000
