21
Properties=species:S:1:pos:R:3 gdb_41260=T pbc="F F F"
C       -0.03060000       1.46330000       0.20070000
C        1.46940000       1.62560000      -0.21170000
C        1.39360000       0.21870000      -0.79900000
C        2.36630000      -0.92180000      -1.11710000
C        1.31710000      -1.47890000      -2.12390000
C        0.04960000      -2.11930000      -1.48550000
C       -0.56880000      -0.71600000      -1.22170000
C        0.08780000      -0.08400000       0.01010000
C        0.57630000      -0.09600000      -2.10730000
H       -0.29620000       1.80110000       1.20430000
H       -0.72010000       1.92540000      -0.51150000
H        1.73710000       2.44970000      -0.88060000
H        2.12010000       1.66790000       0.66920000
H        3.25330000      -0.56790000      -1.65630000
H        2.69200000      -1.56250000      -0.28990000
H        1.69940000      -1.95330000      -3.02800000
H       -0.52170000      -2.66130000      -2.24490000
H        0.18780000      -2.77850000      -0.62090000
H       -1.64130000      -0.59010000      -1.38880000
H        0.10870000      -0.65380000       0.94440000
H        0.46980000       0.57610000      -2.95700000
