22
Properties=species:S:1:pos:R:3 gdb_105053=T pbc="F F F"
C       -0.60170000       1.55500000      -0.44710000
C       -0.49490000       0.04570000      -0.68230000
C        0.84160000      -0.48640000      -1.19670000
C        1.69100000       0.30470000      -2.12560000
N        2.10480000       0.10210000      -0.72400000
C        0.85880000      -1.99680000      -1.33040000
C        0.01450000      -2.57960000      -2.44510000
C        1.99820000      -2.76080000      -0.80400000
O        0.76380000      -2.69620000      -0.07810000
H        0.10530000       1.91200000       0.30950000
H       -0.43970000       2.13140000      -1.36340000
H       -1.60310000       1.80170000      -0.08250000
H       -0.71010000      -0.48400000       0.25360000
H       -1.28030000      -0.25450000      -1.38630000
H        2.31080000      -0.20650000      -2.85800000
H        1.35570000       1.29090000      -2.43290000
H        1.91810000       0.94370000      -0.18580000
H        0.33650000      -2.19650000      -3.41910000
H        0.09960000      -3.66880000      -2.45260000
H       -1.04310000      -2.32790000      -2.31800000
H        2.22780000      -3.73410000      -1.23810000
H        2.82840000      -2.22410000      -0.35520000
