18
Properties=species:S:1:pos:R:3 gdb_124609=T pbc="F F F"
C       -0.02480000       1.50360000       0.09080000
C       -0.02460000      -0.02820000       0.06370000
C        0.74670000      -0.63570000       1.23990000
N       -1.38970000      -0.54250000       0.02260000
N       -2.28660000      -0.31670000       1.04600000
C       -3.35290000      -0.90880000       0.66100000
O       -3.25590000      -1.52410000      -0.54950000
C       -1.95120000      -1.28730000      -0.98580000
N       -1.41240000      -1.67230000      -2.06440000
H        1.00230000       1.88000000       0.07650000
H       -0.55220000       1.90890000      -0.77720000
H       -0.51420000       1.87240000       0.99690000
H        0.40940000      -0.37730000      -0.87760000
H        0.28730000      -0.34920000       2.19040000
H        0.75880000      -1.72720000       1.17610000
H        1.78070000      -0.27890000       1.23560000
H       -4.29080000      -0.96450000       1.18770000
H       -2.05850000      -2.21100000      -2.63260000
