21
Properties=species:S:1:pos:R:3 gdb_117823=T pbc="F F F"
C        0.02990000       1.47970000       0.23030000
O        0.04640000       0.07220000       0.15600000
C       -1.24360000      -0.49180000       0.07760000
C       -1.13110000      -2.02340000      -0.01280000
C       -0.32800000      -2.57760000       1.18360000
C       -2.55000000      -2.63390000      -0.05340000
O       -2.54540000      -4.04220000      -0.12170000
C       -0.36820000      -2.38220000      -1.28160000
O       -0.69960000      -3.24270000      -2.06620000
H        1.06760000       1.81510000       0.29000000
H       -0.44080000       1.92890000      -0.65780000
H       -0.51150000       1.83170000       1.12200000
H       -1.83660000      -0.22720000       0.97050000
H       -1.78310000      -0.09280000      -0.79930000
H       -0.77320000      -2.22360000       2.11980000
H       -0.36250000      -3.66880000       1.17860000
H        0.71090000      -2.24130000       1.15950000
H       -3.08190000      -2.36470000       0.86650000
H       -3.10690000      -2.19340000      -0.89630000
H       -2.11250000      -4.25480000      -0.96000000
H        0.55720000      -1.79440000      -1.44730000
