20
Properties=species:S:1:pos:R:3 gdb_79333=T pbc="F F F"
C        0.00550000       1.48720000       0.09750000
C        0.01660000      -0.00510000      -0.06820000
C        1.09640000      -0.73660000      -0.86620000
C        0.62610000      -2.16650000      -0.53840000
C        0.48390000      -2.07280000       0.98910000
N       -0.35370000      -0.84880000       1.10340000
C       -1.20460000      -0.86130000      -0.11480000
C       -0.87300000      -2.09920000      -0.93550000
O       -1.14090000      -1.84980000      -2.30360000
H        0.93350000       1.83770000       0.56370000
H       -0.09340000       1.98620000      -0.87270000
H       -0.82730000       1.79980000       0.73270000
H        1.04040000      -0.50950000      -1.93320000
H        2.10790000      -0.52570000      -0.50330000
H        1.20380000      -2.99630000      -0.94540000
H       -0.03760000      -2.92430000       1.43830000
H        1.43420000      -1.92880000       1.51220000
H       -2.21490000      -0.47920000      -0.02970000
H       -1.42150000      -2.98720000      -0.58730000
H       -0.94370000      -2.65210000      -2.79710000
