15
Properties=species:S:1:pos:R:3 gdb_25036=T pbc="F F F"
O        0.31680000       0.38250000       0.87160000
C        0.10170000       1.46130000       0.39130000
N       -1.01130000       1.93910000      -0.25720000
C       -0.81760000       3.26750000      -0.65130000
C        0.41190000       3.60870000      -0.24640000
O        0.99940000       2.51830000       0.39720000
N        1.10210000       4.80080000      -0.37830000
C        2.00510000       5.21190000       0.71170000
C        2.56050000       4.74680000      -0.58500000
H       -1.82810000       1.37370000      -0.40400000
H       -1.55840000       3.84350000      -1.17590000
H        1.97200000       6.27130000       0.94620000
H        2.09870000       4.54300000       1.56140000
H        3.02600000       3.76640000      -0.60350000
H        2.93780000       5.46230000      -1.30880000
