19
Properties=species:S:1:pos:R:3 gdb_45276=T pbc="F F F"
O       -0.03940000       0.00550000      -0.01540000
C       -0.01900000       1.20480000      -0.00120000
C       -1.12150000       2.29300000       0.04600000
C       -0.03220000       3.37630000      -0.22070000
C        0.51330000       4.09790000       1.03790000
C        1.57530000       2.98420000       1.20480000
C        2.93330000       3.19960000       0.46850000
C        2.47970000       2.25840000      -0.68880000
C        1.06580000       2.24300000      -0.10770000
H       -1.84930000       2.17480000      -0.76240000
H       -1.66620000       2.37130000       0.99170000
H       -0.17120000       3.95230000      -1.13650000
H        0.94070000       5.08820000       0.85450000
H       -0.20910000       4.18750000       1.85480000
H        1.63600000       2.46230000       2.16060000
H        3.09440000       4.23760000       0.16440000
H        3.81360000       2.86500000       1.02090000
H        2.58560000       2.62730000      -1.71250000
H        2.94230000       1.26900000      -0.62810000
