18
Properties=species:S:1:pos:R:3 gdb_81193=T pbc="F F F"
O       -0.14280000       1.50610000      -0.09890000
C       -0.01150000       0.11020000       0.00150000
C       -0.03310000      -0.59280000       1.38110000
C       -1.53380000      -0.14740000       1.52700000
C       -1.34460000      -0.72130000       0.09120000
C       -1.98440000      -1.34210000      -1.10770000
C       -1.26080000      -2.42910000      -1.40590000
C       -0.12680000      -2.66890000      -0.40320000
N       -0.60230000      -1.85360000       0.73450000
H        0.73630000       1.89690000      -0.07790000
H        0.72260000      -0.27320000      -0.71360000
H        0.72990000      -0.62790000       2.16030000
H       -2.13400000      -0.76630000       2.19350000
H       -1.71200000       0.92170000       1.62220000
H       -2.80500000      -0.93520000      -1.68260000
H       -1.41050000      -3.06860000      -2.26850000
H       -0.04610000      -3.71820000      -0.09780000
H        0.84220000      -2.39420000      -0.85190000
