14
Properties=species:S:1:pos:R:3 gdb_124920=T pbc="F F F"
C       -0.04920000       1.49310000       0.08620000
C        0.02390000       0.01070000      -0.05340000
C       -0.00940000      -0.79450000      -1.19200000
C       -0.12540000      -0.36410000      -2.53060000
N       -0.22150000       0.01090000      -3.62290000
C        0.09920000      -2.12250000      -0.68980000
O        0.10890000      -3.22810000      -1.44540000
N        0.19120000      -2.15300000       0.62490000
N        0.14250000      -0.83740000       0.98450000
H        0.85020000       1.89510000       0.56500000
H       -0.14260000       1.95160000      -0.89990000
H       -0.91360000       1.79680000       0.68640000
H        0.19210000      -3.98680000      -0.85320000
H        0.19660000      -0.60380000       1.96140000
