23
Properties=species:S:1:pos:R:3 gdb_70418=T pbc="F F F"
C       -0.06400000       1.56380000       0.08880000
C        0.04710000       0.06680000       0.02790000
C       -0.86700000      -0.84970000       0.80150000
C        0.61590000      -0.93090000       1.04240000
C        1.27270000      -1.73690000      -0.08060000
C        0.68420000      -0.72590000      -1.12390000
C       -0.09510000      -1.25450000      -2.35990000
C        1.17590000      -1.01430000      -3.21790000
C        1.70340000      -0.07690000      -2.09910000
H        0.89320000       2.05140000      -0.12840000
H       -0.79910000       1.94300000      -0.63240000
H       -0.38470000       1.89170000       1.08320000
H       -1.44300000      -0.36640000       1.58520000
H       -1.38920000      -1.66870000       0.31050000
H        1.04750000      -0.73870000       2.01810000
H        2.36540000      -1.70840000      -0.05410000
H        0.95190000      -2.78160000      -0.17080000
H       -0.49130000      -2.27230000      -2.30930000
H       -0.91020000      -0.57860000      -2.63970000
H        1.78170000      -1.92000000      -3.31030000
H        1.04210000      -0.58540000      -4.21370000
H        1.45360000       0.96900000      -2.30520000
H        2.76310000      -0.13300000      -1.83350000
