17
Properties=species:S:1:pos:R:3 gdb_88264=T pbc="F F F"
C        0.37590000       1.36450000       0.20080000
C        0.03250000      -0.07530000      -0.09700000
C        0.74940000      -0.84550000      -1.17970000
N        0.97630000      -1.12470000       0.21490000
C        2.10380000      -1.08590000       0.97370000
O        2.18120000      -0.56020000       2.07100000
C        3.29930000      -1.87000000       0.37760000
N        4.30870000      -1.95180000       1.27090000
O        3.30390000      -2.32440000      -0.75010000
H        1.39850000       1.59930000      -0.10880000
H       -0.30810000       2.03020000      -0.33480000
H        0.29510000       1.57030000       1.27150000
H       -1.00240000      -0.35340000       0.09630000
H        0.22870000      -1.61770000      -1.73860000
H        1.54320000      -0.34260000      -1.72400000
H        4.19170000      -1.50620000       2.16700000
H        5.16580000      -2.41370000       1.02040000
