23
Properties=species:S:1:pos:R:3 gdb_122540=T pbc="F F F"
C        0.05680000       1.25130000      -0.41150000
O       -0.07380000      -0.00150000       0.21160000
C       -1.28580000      -0.65090000      -0.10670000
C       -1.31880000      -1.99600000       0.60910000
C       -2.60080000      -2.75510000       0.34020000
C       -2.76170000      -3.56380000      -0.93850000
C       -2.63680000      -4.25170000       0.40060000
O       -1.45150000      -4.90450000       0.72490000
C       -1.37350000      -6.20730000       0.18390000
H        1.01810000       1.67250000      -0.10640000
H        0.03910000       1.16770000      -1.51050000
H       -0.74540000       1.94530000      -0.11150000
H       -2.14550000      -0.02830000       0.20010000
H       -1.37120000      -0.79580000      -1.19760000
H       -0.45840000      -2.59330000       0.29580000
H       -1.20280000      -1.82320000       1.68560000
H       -3.50150000      -2.26250000       0.69960000
H       -3.71660000      -3.56870000      -1.45270000
H       -1.89400000      -3.61800000      -1.58860000
H       -3.53000000      -4.72590000       0.81200000
H       -2.18430000      -6.85050000       0.55900000
H       -1.42380000      -6.19470000      -0.91440000
H       -0.41510000      -6.62900000       0.49560000
