17
Properties=species:S:1:pos:R:3 gdb_4775=T pbc="F F F"
C        0.16170000       1.51430000       0.21920000
C       -0.10190000       0.03020000      -0.09670000
C        0.59440000      -0.46090000      -1.32700000
C        0.10350000      -0.74880000      -2.58650000
C        1.20570000      -1.14670000      -3.39430000
O        1.19040000      -1.52600000      -4.70750000
C        2.34070000      -1.09540000      -2.62090000
N        1.94620000      -0.67410000      -1.36450000
H        1.22820000       1.70420000       0.37920000
H       -0.16500000       2.15000000      -0.60900000
H       -0.37270000       1.82360000       1.12320000
H        0.18940000      -0.58000000       0.76960000
H       -1.17710000      -0.12740000      -0.22880000
H       -0.93150000      -0.68140000      -2.89000000
H        0.28350000      -1.48020000      -5.02230000
H        3.36600000      -1.32480000      -2.85450000
H        2.56680000      -0.55280000      -0.58400000
