17
Properties=species:S:1:pos:R:3 gdb_54299=T pbc="F F F"
N        1.09450000      -1.02690000       0.52620000
C       -0.03730000      -0.28390000       0.68230000
O        0.01150000       0.76470000       1.31710000
C       -1.29640000      -0.81650000       0.04960000
C       -1.17500000      -1.59650000      -1.26620000
C       -1.48800000      -2.33740000      -0.02010000
C       -2.61750000      -0.06200000       0.16630000
N       -2.59760000       1.09380000       0.85830000
O       -3.62160000      -0.52160000      -0.35900000
H        1.93610000      -0.67020000       0.94720000
H        1.13640000      -1.89180000       0.02010000
H       -1.99250000      -1.43130000      -1.95670000
H       -0.18990000      -1.66750000      -1.71280000
H       -0.73390000      -2.95530000       0.45360000
H       -2.51240000      -2.66170000       0.11300000
H       -1.72630000       1.41270000       1.26630000
H       -3.46190000       1.60190000       0.94310000
