15
Properties=species:S:1:pos:R:3 gdb_33913=T pbc="F F F"
N        0.03680000      -1.14770000      -0.12610000
C        0.04230000       0.00760000      -0.04220000
C        0.03570000       1.42310000       0.09360000
N        0.25790000       2.32470000      -1.06640000
C        1.18340000       2.40640000       0.06520000
C        0.52040000       3.26890000       1.16400000
C       -0.56630000       4.27530000       0.71660000
O       -1.59640000       3.24830000       0.78900000
C       -0.65500000       2.27030000       1.21620000
H        0.69700000       1.77220000      -1.80230000
H        2.23940000       2.19890000      -0.05330000
H        1.13390000       3.49630000       2.03230000
H       -0.76400000       5.07390000       1.43940000
H       -0.46710000       4.68330000      -0.29170000
H       -0.95590000       1.69870000       2.09640000
