15
Properties=species:S:1:pos:R:3 gdb_5090=T pbc="F F F"
C       -0.09950000       1.51720000       0.00480000
C        0.00520000       0.02590000      -0.00920000
C        0.04580000      -0.80180000      -1.08580000
O        0.12810000      -2.11030000      -0.69980000
C        0.13870000      -2.10280000       0.66330000
O        0.27450000      -3.28450000       1.30410000
C        0.06080000      -0.83560000       1.14890000
N       -0.04850000      -0.42750000       2.49320000
H        0.79500000       1.98660000       0.43410000
H       -0.22360000       1.91350000      -1.00670000
H       -0.95310000       1.84760000       0.60760000
H        0.02060000      -0.62690000      -2.14860000
H       -0.45790000      -3.86780000       1.06840000
H        0.09150000      -1.21310000       3.11840000
H        0.63020000       0.28820000       2.73000000
