20
Properties=species:S:1:pos:R:3 gdb_94625=T pbc="F F F"
O        0.27820000       1.13460000      -0.45830000
C        0.04510000      -0.15300000       0.06070000
C       -0.22010000      -0.28630000       1.57750000
O       -1.52520000      -0.84880000       1.33740000
C       -1.41770000      -0.62790000      -0.09490000
C       -2.41610000       0.39180000      -0.61910000
N       -3.74590000      -0.20060000      -0.68900000
C       -4.53630000      -0.14940000       0.53970000
C       -4.86940000       0.72840000      -0.61460000
H        1.21530000       1.33480000      -0.37720000
H        0.77600000      -0.87560000      -0.32170000
H        0.42600000      -0.97040000       2.14080000
H       -0.26770000       0.68280000       2.09180000
H       -1.54770000      -1.57080000      -0.63850000
H       -2.38150000       1.29530000       0.01260000
H       -2.11460000       0.68990000      -1.63020000
H       -5.13230000      -1.03260000       0.75030000
H       -4.08170000       0.31110000       1.41270000
H       -4.64800000       1.79020000      -0.51520000
H       -5.71280000       0.50000000      -1.26010000
