23
Properties=species:S:1:pos:R:3 gdb_60048=T pbc="F F F"
C       -3.33740000       1.31900000      -0.39190000
C       -2.35450000       0.44280000      -1.16590000
C       -1.25150000       1.27270000      -1.82370000
O       -1.76200000      -0.48900000      -0.23710000
C       -1.71160000      -1.83650000      -0.64410000
C       -0.95640000      -2.14950000      -1.91540000
C       -1.59870000      -2.78820000       0.52660000
C       -2.91110000      -2.65570000      -0.21680000
O       -3.99520000      -2.02050000       0.38960000
H       -3.73930000       2.10860000      -1.03430000
H       -4.17920000       0.72810000      -0.02090000
H       -2.83410000       1.79090000       0.45800000
H       -2.90710000      -0.11720000      -1.93060000
H       -0.69040000       1.82110000      -1.06020000
H       -0.54870000       0.64010000      -2.37090000
H       -1.67840000       1.99750000      -2.52450000
H        0.09240000      -1.84420000      -1.82890000
H       -0.97900000      -3.22640000      -2.10660000
H       -1.38920000      -1.65380000      -2.79030000
H       -0.99910000      -3.68490000       0.40900000
H       -1.55540000      -2.33600000       1.51210000
H       -3.24830000      -3.47530000      -0.84350000
H       -3.64710000      -1.20370000       0.76870000
