20
Properties=species:S:1:pos:R:3 gdb_83890=T pbc="F F F"
C        0.01110000       1.60870000       0.10070000
C        0.11270000       0.09930000       0.06530000
C        1.30710000      -0.71970000      -0.34380000
C        2.70590000      -0.12080000      -0.37400000
C        2.94980000       0.51990000       1.01710000
C        1.92010000      -0.11380000       1.98790000
C        0.83340000      -0.74940000       1.11380000
C        0.13730000      -1.88500000       1.64820000
N       -0.42400000      -2.79770000       2.08690000
H        0.91650000       2.10150000       0.45510000
H       -0.20260000       1.99230000      -0.90290000
H       -0.81200000       1.91850000       0.75300000
H       -0.82100000      -0.36350000      -0.24560000
H        1.11630000      -1.57750000      -0.97920000
H        3.42230000      -0.92850000      -0.55650000
H        2.83440000       0.60370000      -1.18520000
H        3.97290000       0.34910000       1.36180000
H        2.82240000       1.60360000       0.97170000
H        2.38310000      -0.90450000       2.58550000
H        1.51140000       0.61710000       2.69250000
