21
Properties=species:S:1:pos:R:3 gdb_114687=T pbc="F F F"
C       -0.11840000       1.50040000      -0.00220000
C        0.18140000       0.03000000      -0.08110000
C       -0.77380000      -1.02600000       0.42000000
C        0.59400000      -0.84860000       1.06270000
C        1.72610000      -1.73060000       0.56010000
C        1.83230000      -1.40570000      -0.95150000
C        1.45290000      -2.56330000      -1.87440000
O        1.41100000      -2.14880000      -3.22210000
O        0.94560000      -0.30190000      -1.22170000
H        0.80700000       2.08450000       0.02170000
H       -0.70130000       1.82380000      -0.87110000
H       -0.69800000       1.72660000       0.89700000
H       -1.63460000      -0.69540000       0.99250000
H       -0.95310000      -1.90050000      -0.19580000
H        0.64550000      -0.46780000       2.07650000
H        2.65640000      -1.48140000       1.07800000
H        1.53800000      -2.79790000       0.72430000
H        2.84010000      -1.07100000      -1.22610000
H        2.20650000      -3.35590000      -1.79900000
H        0.48930000      -2.99380000      -1.55270000
H        0.89810000      -1.33060000      -3.22190000
