12
Properties=species:S:1:pos:R:3 gdb_410=T pbc="F F F"
O       -0.03900000       1.38330000      -0.01200000
C       -0.03130000      -0.00160000      -0.00720000
C       -0.44190000      -0.72480000       1.26660000
C       -1.36150000      -0.73390000       0.08170000
C        1.03630000      -0.59860000      -0.83070000
O        1.82370000       0.08590000      -1.44630000
H        0.70200000       1.63210000      -0.58770000
H        0.07530000      -1.63860000       1.53920000
H       -0.68320000      -0.06500000       2.09160000
H       -2.22560000      -0.08030000       0.10450000
H       -1.49040000      -1.65410000      -0.47810000
H        1.07490000      -1.70710000      -0.85230000
