20
Properties=species:S:1:pos:R:3 gdb_102781=T pbc="F F F"
C       -1.12050000       1.39340000      -0.08080000
C       -0.63970000      -0.05610000       0.00340000
C        0.59640000      -0.22850000       0.89410000
O        0.25330000       0.14500000       2.23000000
C        1.17310000       0.81050000       2.95890000
N        0.98130000       1.00430000       4.19030000
C        1.10570000      -1.68060000       0.82000000
C        0.94820000      -2.55110000       2.04570000
O        1.58810000      -2.07310000      -0.21650000
H       -0.34730000       2.04270000      -0.50650000
H       -2.00640000       1.46860000      -0.71770000
H       -1.38080000       1.77850000       0.90860000
H       -1.44050000      -0.69590000       0.39360000
H       -0.37440000      -0.43960000      -0.98630000
H        1.40440000       0.41600000       0.52050000
H        2.03800000       1.14550000       2.36890000
H        1.75070000       1.54380000       4.58150000
H        1.56760000      -2.17070000       2.86550000
H       -0.08330000      -2.52000000       2.41030000
H        1.24220000      -3.57270000       1.80350000
