23
Properties=species:S:1:pos:R:3 gdb_57186=T pbc="F F F"
C        0.02070000       1.53790000       0.03080000
C       -0.03260000      -0.00410000       0.11330000
C        0.79320000      -0.44880000       1.32170000
C        2.27600000      -0.66120000       1.06820000
O        0.31890000      -0.60480000       2.42590000
C       -1.47960000      -0.56470000       0.07030000
C       -1.46320000      -2.09810000       0.16690000
C       -2.41100000       0.03310000       1.13220000
O       -1.93240000      -0.18550000      -1.24090000
H        1.04360000       1.88860000      -0.13640000
H       -0.59840000       1.87550000      -0.80210000
H       -0.34340000       1.99870000       0.95310000
H        0.45770000      -0.39240000      -0.78800000
H        2.70570000       0.16640000       0.49480000
H        2.80450000      -0.77880000       2.01490000
H        2.41060000      -1.56680000       0.46400000
H       -1.11410000      -2.43460000       1.14620000
H       -2.47390000      -2.49460000       0.01720000
H       -0.81920000      -2.52300000      -0.60960000
H       -2.52000000       1.11120000       0.99190000
H       -3.40690000      -0.41890000       1.04640000
H       -2.02860000      -0.15800000       2.13590000
H       -2.86160000      -0.42950000      -1.30730000
