21
Properties=species:S:1:pos:R:3 gdb_70824=T pbc="F F F"
C        0.03420000       1.43610000      -0.07980000
C        0.02020000      -0.06090000      -0.05380000
N        0.64750000      -0.93360000      -1.10490000
C        0.07110000      -1.92010000      -0.12850000
C        0.17650000      -3.40670000      -0.28880000
C        0.46860000      -1.01910000       1.08470000
N       -0.88730000      -0.99700000       1.72250000
C       -1.18260000      -1.03160000       0.24870000
C       -2.56800000      -1.03610000      -0.32420000
H        1.05900000       1.81200000      -0.16060000
H       -0.53710000       1.82460000      -0.93050000
H       -0.41240000       1.82590000       0.83990000
H        0.08500000      -0.91350000      -1.96200000
H        1.22230000      -3.71040000      -0.39780000
H       -0.24130000      -3.91980000       0.58500000
H       -0.37150000      -3.75150000      -1.17300000
H        1.40410000      -1.00580000       1.64520000
H       -1.09250000      -1.90650000       2.14730000
H       -3.14270000      -0.18060000       0.04460000
H       -2.53300000      -0.97990000      -1.41850000
H       -3.10930000      -1.95000000      -0.05430000
