17
Properties=species:S:1:pos:R:3 gdb_75994=T pbc="F F F"
C        0.05510000       1.27370000      -0.43300000
N        0.05590000      -0.02630000       0.19130000
C       -1.02300000      -1.01690000       0.23590000
C       -1.63040000      -1.29300000      -1.06860000
N       -2.08230000      -1.47280000      -2.11730000
C        0.06940000      -2.07040000       0.68870000
N        0.09840000      -3.32850000      -0.00350000
C        1.08050000      -0.94970000       0.38060000
N        2.34150000      -0.95540000       0.31400000
H        1.06190000       1.69350000      -0.35990000
H       -0.22570000       1.22200000      -1.49330000
H       -0.63420000       1.95230000       0.08030000
H       -1.81210000      -0.80090000       0.96410000
H       -0.01290000      -2.25380000       1.76290000
H        0.35440000      -3.20190000      -0.97830000
H        0.80150000      -3.93170000       0.40970000
H        2.72740000      -0.05440000       0.02740000
