21
Properties=species:S:1:pos:R:3 gdb_77955=T pbc="F F F"
C       -0.04810000       1.56000000      -0.28990000
C        0.06530000       0.04150000      -0.16900000
C        1.18480000      -0.78740000      -0.87650000
C        2.18850000      -0.44260000       0.28060000
C        2.93580000       0.87810000       0.45110000
C        0.81840000      -0.73750000       0.96880000
C        0.74380000      -1.99710000       0.02820000
C       -0.51450000      -2.67390000      -0.20740000
C       -1.53420000      -3.28450000      -0.39610000
H        0.87560000       2.05980000      -0.57930000
H       -0.79320000       1.80320000      -1.05510000
H       -0.39640000       2.00810000       0.64790000
H       -0.92890000      -0.38230000      -0.33400000
H        1.39780000      -0.84140000      -1.94650000
H        2.91100000      -1.25520000       0.42470000
H        2.30580000       1.71280000       0.75490000
H        3.70080000       0.75920000       1.22580000
H        3.45590000       1.16310000      -0.47070000
H        0.59550000      -0.73140000       2.03820000
H        1.53750000      -2.72810000       0.20890000
H       -2.43800000      -3.81590000      -0.56370000
