13
Properties=species:S:1:pos:R:3 gdb_64551=T pbc="F F F"
O       -0.11530000       1.36770000       0.03120000
C       -0.07910000      -0.00110000       0.02000000
C        1.02550000      -0.57140000      -0.80470000
O        1.77850000       0.15250000      -1.41100000
C       -0.49580000      -0.81620000       1.21270000
O       -1.49670000      -0.09310000       1.95920000
C       -2.37550000      -0.17430000       0.88100000
O       -3.50860000       0.16200000       0.84010000
C       -1.37090000      -0.86240000      -0.01890000
H        0.58170000       1.65030000      -0.58350000
H        1.11310000      -1.67510000      -0.83150000
H        0.06700000      -1.57340000       1.74200000
H       -1.57400000      -1.62280000      -0.75970000
