18
Properties=species:S:1:pos:R:3 gdb_112275=T pbc="F F F"
C        0.39520000       1.46260000      -0.15870000
N       -0.24470000       0.21720000       0.27190000
C        0.48530000      -0.45380000       1.32760000
C        0.06650000      -1.90060000       1.68030000
C       -0.98060000      -2.59480000       0.83040000
O       -0.98370000      -3.98670000       1.08070000
O        1.41180000      -2.38000000       1.29620000
C        1.79390000      -1.12960000       0.88370000
O        2.81800000      -0.81400000       0.36950000
H        1.38100000       1.23700000      -0.57170000
H       -0.21140000       1.92210000      -0.94310000
H        0.52900000       2.19550000       0.65550000
H       -1.18450000       0.41910000       0.59860000
H        0.65950000       0.16370000       2.22670000
H       -0.09190000      -2.10100000       2.74250000
H       -1.97660000      -2.22510000       1.09890000
H       -0.80830000      -2.35880000      -0.22750000
H       -0.10540000      -4.31380000       0.85380000
