17
Properties=species:S:1:pos:R:3 gdb_49163=T pbc="F F F"
O       -0.83000000       1.29700000      -0.15510000
C        0.27970000       0.89670000       0.10770000
C        1.47640000       1.78110000       0.12120000
N        2.63760000       1.26150000       0.33280000
C        3.72460000       2.23920000       0.23730000
C        3.36530000       3.52850000       1.04530000
C        2.49270000       3.90640000      -0.18700000
C        3.53530000       3.12380000      -1.03950000
N        1.27440000       3.11100000      -0.10070000
H        0.50880000      -0.15990000       0.34260000
H        4.68400000       1.75290000       0.40950000
H        2.86200000       3.40440000       2.00570000
H        4.22640000       4.19160000       1.14230000
H        2.25740000       4.94760000      -0.40480000
H        4.42230000       3.72830000      -1.23590000
H        3.19020000       2.63430000      -1.95250000
H        0.38700000       3.41320000      -0.46970000
