16
Properties=species:S:1:pos:R:3 gdb_65843=T pbc="F F F"
C       -0.13620000       1.62200000      -0.08240000
C        0.03280000       0.09830000      -0.00950000
C        0.90960000      -0.45410000      -1.17310000
O        1.67690000      -1.51250000      -0.60360000
C        1.67960000      -1.39830000       0.75940000
O        2.29450000      -2.12230000       1.48700000
N        0.88800000      -0.31410000       1.10520000
C       -1.28020000      -0.56190000       0.04120000
C       -2.35690000      -1.09250000       0.10040000
H        0.84450000       2.10390000      -0.07180000
H       -0.66800000       1.90130000      -0.99650000
H       -0.71810000       1.98560000       0.76840000
H        0.31510000      -0.84780000      -1.99760000
H        1.58530000       0.32670000      -1.54020000
H        0.52070000      -0.31780000       2.04490000
H       -3.30380000      -1.57180000       0.15100000
