17
Properties=species:S:1:pos:R:3 gdb_76115=T pbc="F F F"
C       -0.07630000       1.53480000       0.07010000
C        0.16260000       0.06480000      -0.02810000
O       -0.78590000      -0.83060000       0.58830000
C        0.59690000      -0.95610000       0.94110000
C        1.26160000      -1.82660000      -0.14080000
C        0.79880000      -3.18930000      -0.28300000
C        0.38900000      -4.31110000      -0.42260000
C        0.73720000      -0.74770000      -1.20790000
O       -0.16230000      -1.16040000      -2.18390000
H        0.83430000       2.09160000      -0.17290000
H       -0.85700000       1.84330000      -0.63350000
H       -0.39660000       1.80620000       1.07930000
H        0.85360000      -0.87510000       1.99100000
H        2.35340000      -1.78360000      -0.07390000
H        0.03570000      -5.30590000      -0.53720000
H        1.57110000      -0.25640000      -1.71460000
H       -0.89660000      -1.58250000      -1.71810000
