17
Properties=species:S:1:pos:R:3 gdb_49147=T pbc="F F F"
O       -0.04580000      -0.00770000       0.13370000
C        0.01070000       1.19750000       0.01020000
C        1.25790000       1.95260000      -0.01400000
C        1.39120000       3.28010000      -0.14670000
C        2.81460000       3.63520000      -0.12140000
C        3.42820000       4.72790000      -0.96840000
C        3.36240000       4.88430000       0.53250000
O        3.53860000       2.43430000       0.03530000
C        2.62740000       1.33140000       0.11080000
H       -0.91010000       1.81280000      -0.09430000
H        0.59290000       4.00370000      -0.25720000
H        4.39110000       4.48820000      -1.40480000
H        2.77770000       5.33280000      -1.59090000
H        2.66600000       5.59830000       0.95860000
H        4.28180000       4.74810000       1.09060000
H        2.75830000       0.80010000       1.06320000
H        2.83530000       0.61620000      -0.69640000
