14
Properties=species:S:1:pos:R:3 gdb_77854=T pbc="F F F"
O        0.19680000       1.40210000       0.27710000
C        0.04430000       0.04860000       0.01210000
C       -1.33800000      -0.64640000       0.05940000
C       -2.19120000      -0.25100000      -1.11080000
C       -2.11390000       1.05870000      -1.71140000
N       -2.02940000       2.11830000      -2.16950000
C       -1.09530000      -1.30410000      -1.30900000
C        0.23410000      -0.58520000      -1.41290000
O        1.12540000      -0.59680000      -2.20520000
H       -0.23930000       1.91760000      -0.41270000
H        0.73200000      -0.48480000       0.68030000
H       -1.78490000      -1.09940000       0.93440000
H       -3.19460000      -0.66560000      -1.11090000
H       -1.34890000      -2.29110000      -1.67280000
