17
Properties=species:S:1:pos:R:3 gdb_75145=T pbc="F F F"
C       -0.15640000       1.63570000      -0.09100000
C        0.04380000       0.11990000      -0.03190000
C        0.96180000      -0.42520000      -1.19090000
N        2.17560000      -0.89590000      -0.53730000
C        1.99960000      -0.72130000       0.71200000
N        2.90170000      -0.97240000       1.71040000
O        0.83130000      -0.18320000       1.16010000
C       -1.23150000      -0.58510000       0.05950000
C       -2.28930000      -1.15390000       0.09660000
H        0.81720000       2.13080000      -0.14840000
H       -0.74080000       1.90080000      -0.97670000
H       -0.68570000       1.99070000       0.79630000
H        0.47060000      -1.23670000      -1.73750000
H        1.18080000       0.37250000      -1.91100000
H        3.64170000      -1.60200000       1.44120000
H        2.49760000      -1.15660000       2.61560000
H       -3.22140000      -1.66170000       0.13560000
