19
Properties=species:S:1:pos:R:3 gdb_86482=T pbc="F F F"
C        0.00840000       1.49980000      -0.12680000
C        0.09070000      -0.01690000      -0.06900000
C        1.19520000      -0.73180000      -0.89540000
C        1.46860000      -1.68380000       0.30980000
C        0.66450000      -0.66750000       1.21840000
C        0.67920000      -2.98720000       0.22400000
O       -0.12500000      -3.24300000      -0.63280000
C        2.83730000      -1.96540000       0.69140000
C        3.96840000      -2.22200000       1.01130000
H        0.97790000       1.95620000       0.10400000
H       -0.29230000       1.84070000      -1.12350000
H       -0.72300000       1.88660000       0.59140000
H       -0.88290000      -0.45620000      -0.30520000
H        0.88910000      -1.23050000      -1.81570000
H        2.05540000      -0.08660000      -1.08660000
H        1.35900000      -0.01100000       1.74820000
H       -0.03420000      -1.10080000       1.93940000
H        0.88800000      -3.69090000       1.05890000
H        4.97100000      -2.43540000       1.28890000
