16
Properties=species:S:1:pos:R:3 gdb_1129=T pbc="F F F"
C        0.05930000       1.41610000      -0.12180000
N       -0.01860000      -0.00400000       0.20860000
H        0.29320000      -1.61700000      -0.84490000
C        0.65790000      -0.30380000       1.47080000
C       -1.38110000      -0.53360000       0.18420000
C       -1.40200000      -2.01920000      -0.20910000
O       -0.28490000      -2.41060000      -0.84280000
O       -2.33440000      -2.74620000      -0.00500000
H        1.10880000       1.72040000      -0.17370000
H       -0.39690000       1.59570000      -1.09910000
H       -0.44530000       2.05760000       0.62070000
H        0.19120000       0.20910000       2.32910000
H        0.63250000      -1.38070000       1.65940000
H        1.70450000       0.00750000       1.41050000
H       -1.92200000      -0.41740000       1.13420000
H       -1.95810000      -0.00200000      -0.58020000
