21
Properties=species:S:1:pos:R:3 gdb_7162=T pbc="F F F"
C       -0.04740000       1.61060000      -0.08260000
C        0.01230000       0.08510000       0.04070000
C       -1.37920000      -0.55890000       0.06530000
C       -1.37900000      -2.09800000       0.07790000
C       -0.74160000      -2.68800000       1.34180000
C       -2.83340000      -2.60380000      -0.09600000
C       -2.92820000      -4.05500000      -0.23930000
N       -2.98320000      -5.20360000      -0.35610000
H        0.95550000       2.04780000      -0.09860000
H       -0.55850000       1.91450000      -1.00290000
H       -0.59070000       2.05510000       0.75870000
H        0.58600000      -0.32870000      -0.79920000
H        0.56500000      -0.18120000       0.94890000
H       -1.93540000      -0.19230000       0.94050000
H       -1.93840000      -0.21300000      -0.81510000
H       -0.80890000      -2.44690000      -0.79340000
H        0.30980000      -2.40280000       1.42730000
H       -1.25930000      -2.33410000       2.24170000
H       -0.78950000      -3.78070000       1.33390000
H       -3.43990000      -2.30010000       0.76660000
H       -3.28980000      -2.14250000      -0.97930000
