15
Properties=species:S:1:pos:R:3 gdb_108742=T pbc="F F F"
C        0.00160000       1.47570000       0.04890000
N       -0.07420000       0.03130000      -0.13030000
C       -1.19230000      -0.72710000      -0.04660000
C       -1.32700000      -2.07390000       0.05360000
C       -2.73460000      -2.40250000       0.05420000
N       -3.29100000      -3.53320000       0.13480000
O       -3.46140000      -1.20040000      -0.04830000
C       -2.58360000      -0.15570000      -0.11960000
O       -2.94330000       0.98290000      -0.22390000
H        0.88400000       1.84690000      -0.47840000
H       -0.88840000       1.94390000      -0.36540000
H        0.08270000       1.75920000       1.10700000
H        0.79160000      -0.47080000      -0.00780000
H       -0.55530000      -2.82480000       0.12440000
H       -4.30700000      -3.43940000       0.11420000
