15
Properties=species:S:1:pos:R:3 gdb_43019=T pbc="F F F"
O        0.00530000       0.05050000       0.33090000
C       -0.01390000       1.24310000       0.11900000
C       -1.31260000       1.96920000      -0.08110000
O       -1.45300000       3.30050000       0.42820000
C       -1.33380000       3.15390000      -0.97500000
C       -0.07030000       3.67100000      -1.63250000
C        1.22370000       3.18910000      -1.00860000
O        1.37560000       3.33940000       0.39100000
C        1.25860000       2.00460000      -0.11480000
H       -2.19010000       1.33270000       0.01450000
H       -2.25540000       3.34540000      -1.52630000
H       -0.08010000       3.37180000      -2.68830000
H       -0.08530000       4.76850000      -1.61980000
H        2.12490000       3.40570000      -1.58380000
H        2.15550000       1.39250000      -0.04260000
