21
Properties=species:S:1:pos:R:3 gdb_94835=T pbc="F F F"
C        0.05980000       1.52720000       0.07980000
C        0.01530000       0.00950000      -0.01350000
C        0.68070000      -0.53810000      -1.28290000
C        0.68280000      -2.07560000      -1.27460000
C        1.24380000      -2.57900000       0.03960000
C        1.85310000      -3.90640000       0.16150000
O        2.67130000      -2.73630000       0.08800000
C        0.62690000      -1.90500000       1.24890000
O        0.67340000      -0.49450000       1.14680000
H        1.09660000       1.87720000       0.07160000
H       -0.46800000       1.98120000      -0.76430000
H       -0.40820000       1.86560000       1.00800000
H       -1.03880000      -0.32680000       0.00430000
H        0.16130000      -0.15870000      -2.16990000
H        1.71270000      -0.16980000      -1.32000000
H       -0.34550000      -2.44570000      -1.38650000
H        1.26970000      -2.47800000      -2.10550000
H        1.85620000      -4.41990000       1.12300000
H        1.88860000      -4.56150000      -0.70880000
H       -0.41800000      -2.24730000       1.36020000
H        1.18000000      -2.17320000       2.15270000
