23
Properties=species:S:1:pos:R:3 gdb_94669=T pbc="F F F"
C       -0.06490000       1.51530000      -0.02860000
C       -0.03200000       0.00710000       0.03850000
C        1.25960000      -0.73740000      -0.21320000
C        0.63070000      -0.78860000       1.16390000
C        1.35880000      -0.17660000       2.33890000
C       -0.24810000      -2.00920000       1.44210000
O       -1.03770000      -1.82380000       2.61750000
C       -1.11890000      -2.17540000       0.17750000
C       -1.29340000      -0.74570000      -0.38100000
H        0.85910000       1.96220000       0.34950000
H       -0.19310000       1.85800000      -1.06240000
H       -0.89740000       1.92430000       0.55700000
H        1.26700000      -1.61860000      -0.84730000
H        2.15890000      -0.13500000      -0.30080000
H        1.87060000       0.74870000       2.05960000
H        0.67390000       0.04310000       3.16240000
H        2.11810000      -0.86780000       2.72360000
H        0.34190000      -2.90750000       1.65440000
H       -1.56680000      -1.02810000       2.49270000
H       -0.61430000      -2.81590000      -0.55170000
H       -2.06470000      -2.66030000       0.42990000
H       -2.17100000      -0.25540000       0.06250000
H       -1.44900000      -0.73780000      -1.46580000
