18
Properties=species:S:1:pos:R:3 gdb_47088=T pbc="F F F"
N        0.02210000       1.23550000       0.29470000
C        0.03680000       0.00550000       0.01130000
O        1.15550000      -0.69890000      -0.33520000
C        0.82410000      -2.04800000      -0.70060000
C       -0.56840000      -2.31690000      -0.12360000
C       -0.59940000      -2.83750000       1.32560000
O       -1.77800000      -2.29420000       1.88540000
C       -1.89560000      -0.95400000       1.41680000
C       -1.17370000      -0.90780000       0.04210000
H        0.95640000       1.63920000       0.21130000
H        0.83770000      -2.13210000      -1.79350000
H        1.60110000      -2.70210000      -0.29360000
H       -1.16160000      -2.96220000      -0.77340000
H       -0.65700000      -3.92620000       1.40290000
H        0.29870000      -2.49650000       1.87040000
H       -2.96040000      -0.72010000       1.34540000
H       -1.42790000      -0.24520000       2.11210000
H       -1.85800000      -0.62850000      -0.76130000
