14
Properties=species:S:1:pos:R:3 gdb_128691=T pbc="F F F"
C       -0.05620000       1.38770000       0.00870000
O       -0.02860000      -0.04110000       0.00340000
C       -1.21260000      -0.64990000       0.01010000
N       -2.37350000      -0.01580000       0.02140000
N       -3.29370000      -1.01790000       0.02480000
C       -2.75110000      -2.24540000       0.01590000
C       -1.37500000      -2.06910000       0.00620000
C       -0.37230000      -3.06240000      -0.00500000
N        0.45050000      -3.87770000      -0.01430000
H        0.98700000       1.70310000       0.00170000
H       -0.57550000       1.76870000      -0.87600000
H       -0.56180000       1.76240000       0.90400000
H       -4.26950000      -0.77600000       0.03310000
H       -3.34420000      -3.14570000       0.01700000
