18
Properties=species:S:1:pos:R:3 gdb_105857=T pbc="F F F"
C        0.09280000       1.34340000       0.22210000
O        0.04210000      -0.02890000      -0.16090000
C       -1.22180000      -0.54850000      -0.12330000
C       -1.85300000      -1.14560000       1.16190000
N       -3.14450000      -0.90000000       1.74060000
C       -1.63440000      -2.01810000      -0.03660000
N       -2.62850000      -1.77580000      -1.09430000
C       -2.29750000      -0.39330000      -1.16700000
N       -2.70670000       0.59290000      -1.84130000
H        1.13610000       1.65320000       0.13590000
H       -0.53040000       1.95870000      -0.43610000
H       -0.23850000       1.47640000       1.26160000
H       -1.07500000      -1.27680000       1.91300000
H       -3.16530000       0.01630000       2.17880000
H       -3.86230000      -0.88530000       1.02260000
H       -1.01720000      -2.90720000      -0.06580000
H       -3.59220000      -2.07340000      -0.97730000
H       -3.47540000       0.33150000      -2.46250000
