19
Properties=species:S:1:pos:R:3 gdb_100405=T pbc="F F F"
C        0.07760000       1.13870000       0.22620000
O       -0.22260000      -0.18480000      -0.21610000
C       -1.51060000      -0.57090000      -0.12210000
N       -1.64390000      -1.89310000      -0.46040000
N       -2.41380000       0.24280000       0.28670000
C       -3.77060000      -0.27790000       0.45780000
C       -4.57900000       0.67760000       1.33110000
C       -4.35570000      -0.39670000      -0.94180000
O       -4.31980000      -1.40770000      -1.60840000
H        1.15640000       1.24760000       0.10590000
H       -0.45220000       1.88000000      -0.37750000
H       -0.20880000       1.27400000       1.27220000
H       -0.83170000      -2.30240000      -0.89570000
H       -2.53410000      -2.16190000      -0.86220000
H       -3.76760000      -1.28680000       0.89800000
H       -4.09910000       0.78130000       2.30750000
H       -4.62170000       1.67060000       0.87230000
H       -5.60100000       0.31340000       1.47970000
H       -4.76610000       0.54670000      -1.36420000
