17
Properties=species:S:1:pos:R:3 gdb_1148=T pbc="F F F"
C       -0.09200000       1.52680000      -0.09900000
C        0.04510000       0.03020000       0.04370000
O       -1.11770000      -0.67580000      -0.34530000
C        1.37080000      -0.67490000      -0.18920000
C        0.74450000      -0.64960000       1.19960000
C        1.39880000       0.10760000       2.32780000
O        0.15570000      -1.82860000       1.66530000
H        0.79560000       2.04970000       0.26480000
H       -0.22910000       1.80060000      -1.15230000
H       -0.96090000       1.88890000       0.45960000
H       -1.08380000      -0.81860000      -1.29700000
H        1.34270000      -1.62660000      -0.71040000
H        2.24760000      -0.06590000      -0.38660000
H        1.93560000       0.99010000       1.97240000
H        0.65460000       0.42140000       3.06670000
H        2.11860000      -0.54490000       2.83250000
H       -0.62430000      -1.97080000       1.11030000
