20
Properties=species:S:1:pos:R:3 gdb_122911=T pbc="F F F"
C       -0.10630000       1.52690000       0.00300000
C       -0.02550000       0.01070000       0.04340000
O       -1.33900000      -0.51250000      -0.01470000
C       -1.37980000      -1.91880000       0.01850000
C       -2.84410000      -2.34330000      -0.01390000
C       -2.99930000      -3.87140000       0.01250000
O       -2.41680000      -4.47590000       1.15460000
C       -4.42250000      -4.24980000      -0.11750000
N       -5.54050000      -4.53360000      -0.18740000
H        0.89610000       1.96270000       0.04690000
H       -0.59050000       1.86090000      -0.91900000
H       -0.68640000       1.90310000       0.85030000
H        0.57090000      -0.36890000      -0.80350000
H        0.47570000      -0.32800000       0.96590000
H       -0.84140000      -2.34600000      -0.84660000
H       -0.89020000      -2.30820000       0.92440000
H       -3.37220000      -1.90630000       0.84180000
H       -3.32060000      -1.94690000      -0.91660000
H       -2.46360000      -4.30560000      -0.84000000
H       -2.89550000      -4.17050000       1.93440000
