17
Properties=species:S:1:pos:R:3 gdb_13372=T pbc="F F F"
C       -0.51580000       1.24530000      -0.13280000
C        0.83080000       0.63470000       0.25420000
N        1.57510000       0.25460000      -0.94210000
C        2.23350000      -0.81280000      -0.96100000
C        3.02350000      -1.36240000      -2.13230000
O        3.81270000      -2.39360000      -1.55500000
C        3.10000000      -2.83160000      -0.43090000
O        2.37980000      -1.70820000       0.07060000
H       -0.37260000       2.09860000      -0.80180000
H       -1.14030000       0.51200000      -0.65270000
H       -1.05580000       1.58480000       0.75680000
H        1.42520000       1.38390000       0.79460000
H        0.68510000      -0.21020000       0.93980000
H        2.34480000      -1.75330000      -2.90560000
H        3.67790000      -0.61350000      -2.58040000
H        2.38080000      -3.62780000      -0.68580000
H        3.80180000      -3.17950000       0.33130000
