16
Properties=species:S:1:pos:R:3 gdb_17950=T pbc="F F F"
O       -0.11430000       1.40190000      -0.03670000
C        0.02270000       0.03240000      -0.02330000
C       -1.03750000      -1.03690000       0.07900000
C       -0.45790000      -1.78870000      -1.12120000
C        0.81860000      -0.88940000      -0.99400000
O        1.84170000      -1.51050000      -0.22970000
C        1.28380000      -1.77330000       1.06810000
C        0.04930000      -0.88550000       1.16020000
H        0.66470000       1.79090000       0.37740000
H       -2.08340000      -0.93200000       0.34100000
H       -0.28930000      -2.86680000      -1.03640000
H       -1.01610000      -1.57800000      -2.03750000
H        1.25340000      -0.47810000      -1.90380000
H        1.04990000      -2.84240000       1.16840000
H        2.03300000      -1.51920000       1.82730000
H       -0.28720000      -0.50970000       2.11910000
