20
Properties=species:S:1:pos:R:3 gdb_96675=T pbc="F F F"
C       -0.09980000       1.43350000       0.02220000
N       -0.05630000      -0.01870000       0.02740000
C        0.53640000      -0.61050000      -0.92350000
C        1.23320000      -0.00450000      -2.11380000
O        0.60580000      -1.96290000      -0.96270000
C       -0.01040000      -2.65450000       0.10370000
C        0.19630000      -4.15310000      -0.07820000
C       -0.49360000      -5.01200000       0.96840000
O        0.85040000      -4.61870000      -0.97710000
H        0.90210000       1.88500000       0.06070000
H       -0.60600000       1.83770000      -0.86640000
H       -0.65070000       1.77840000       0.90100000
H        2.04150000       0.65670000      -1.78470000
H        1.64580000      -0.78320000      -2.75470000
H        0.53360000       0.60640000      -2.69360000
H        0.40650000      -2.33590000       1.06880000
H       -1.08270000      -2.42220000       0.15480000
H       -0.24400000      -4.67780000       1.98120000
H       -1.58170000      -4.92940000       0.86370000
H       -0.19770000      -6.05320000       0.83720000
