20
Properties=species:S:1:pos:R:3 gdb_60440=T pbc="F F F"
C       -0.07690000       1.54290000       0.02800000
C       -0.02860000       0.01530000       0.02710000
O        0.72210000      -0.48100000       1.13440000
C       -1.42980000      -0.60790000      -0.02510000
C       -1.38400000      -2.12570000      -0.10370000
O       -2.74210000      -2.59750000      -0.09140000
C       -2.88820000      -3.93440000      -0.25870000
N       -4.21870000      -4.25730000      -0.27440000
O       -1.97900000      -4.71640000      -0.40610000
H        0.93480000       1.95230000       0.08890000
H       -0.55500000       1.92630000      -0.87900000
H       -0.64950000       1.91320000       0.88790000
H        0.53930000      -0.32050000      -0.85010000
H        0.30740000      -0.15050000       1.93950000
H       -1.99490000      -0.30670000       0.86800000
H       -1.97610000      -0.21270000      -0.88970000
H       -0.89100000      -2.46810000      -1.01930000
H       -0.83700000      -2.54890000       0.74230000
H       -4.87990000      -3.59060000       0.08620000
H       -4.43400000      -5.23400000      -0.17140000
