19
Properties=species:S:1:pos:R:3 gdb_15809=T pbc="F F F"
C        0.01090000       1.50680000      -0.18190000
C        0.00570000      -0.00010000      -0.00420000
O        0.66820000      -0.57020000      -1.14310000
C        0.76940000      -1.91420000      -1.17650000
N        0.29680000      -2.63230000      -0.23830000
C        1.48020000      -2.33190000      -2.42010000
C        2.39680000      -3.53830000      -2.39600000
C        1.08750000      -3.61870000      -3.11740000
H        1.03360000       1.89020000      -0.24170000
H       -0.51690000       1.79480000      -1.09580000
H       -0.48660000       1.98350000       0.66800000
H        0.52950000      -0.30970000       0.90630000
H       -1.01000000      -0.40440000       0.05810000
H        0.45570000      -3.62230000      -0.41610000
H        1.77530000      -1.50070000      -3.04830000
H        3.31070000      -3.48310000      -2.97640000
H        2.49610000      -4.06130000      -1.45080000
H        0.28730000      -4.19690000      -2.66770000
H        1.08730000      -3.61960000      -4.20130000
