18
Properties=species:S:1:pos:R:3 gdb_83436=T pbc="F F F"
O       -0.28090000       1.46020000      -0.02350000
C       -0.05900000       0.08700000       0.00580000
C       -0.20670000      -0.75490000       1.26380000
C       -1.41450000      -0.24390000       2.03120000
O       -2.25130000      -0.28210000       0.83090000
C       -1.18070000      -0.89570000       0.08550000
C       -1.55500000      -1.97140000      -0.86120000
C       -2.68260000      -2.88380000      -0.54720000
N       -2.82700000      -1.86080000      -1.59910000
H       -1.23620000       1.58130000       0.06080000
H        0.77500000      -0.20880000      -0.62530000
H        0.55600000      -1.42370000       1.63990000
H       -1.80110000      -0.94240000       2.77880000
H       -1.35280000       0.76570000       2.45070000
H       -0.72510000      -2.34050000      -1.45990000
H       -2.66220000      -3.90930000      -0.90460000
H       -3.20350000      -2.72790000       0.39260000
H       -3.35710000      -1.07780000      -1.22060000
