18
Properties=species:S:1:pos:R:3 gdb_15016=T pbc="F F F"
O       -0.01140000       1.45140000       0.00920000
C       -0.02520000       0.04040000       0.00230000
C       -1.46190000      -0.45260000       0.01350000
O       -2.08630000      -0.00970000       1.19130000
C       -3.43550000      -0.44620000       1.27210000
C       -4.22040000       0.01370000       0.04250000
C       -3.45930000      -0.43290000      -1.20680000
O       -2.10870000       0.00280000      -1.14730000
H        0.90620000       1.73710000       0.00430000
H        0.45610000      -0.37440000      -0.89650000
H        0.47300000      -0.38340000       0.88760000
H       -1.45420000      -1.56390000       0.00750000
H       -3.46900000      -1.54750000       1.34980000
H       -3.84080000      -0.03030000       2.19810000
H       -5.23220000      -0.40700000       0.05000000
H       -4.29860000       1.10550000       0.04910000
H       -3.49450000      -1.53340000      -1.29560000
H       -3.88240000      -0.00730000      -2.12040000
