21
Properties=species:S:1:pos:R:3 gdb_30651=T pbc="F F F"
C       -0.04580000       1.51850000       0.13600000
C        0.08820000      -0.00490000       0.05330000
C        0.73430000      -0.52080000      -1.25490000
C        2.18770000      -0.04350000      -1.42990000
C        0.62470000      -2.01490000      -1.35410000
N       -0.14980000      -2.67610000      -2.18900000
C        0.05330000      -4.01090000      -1.91740000
C        0.96120000      -4.16370000      -0.90640000
N        1.32040000      -2.87990000      -0.55250000
H        0.92710000       2.01920000       0.15250000
H       -0.60810000       1.91030000      -0.71900000
H       -0.57950000       1.81120000       1.04550000
H        0.66920000      -0.36960000       0.91210000
H       -0.90470000      -0.45990000       0.14260000
H        0.14150000      -0.14310000      -2.09520000
H        2.24340000       1.04720000      -1.47890000
H        2.82120000      -0.36450000      -0.59350000
H        2.62100000      -0.44410000      -2.35050000
H       -0.46470000      -4.78160000      -2.46780000
H        1.37890000      -5.02850000      -0.41840000
H        1.97880000      -2.62850000       0.16500000
