19
Properties=species:S:1:pos:R:3 gdb_31710=T pbc="F F F"
C        0.38420000       0.73330000       0.88480000
C       -0.33950000       0.35580000      -0.40990000
C        0.56980000      -0.08380000      -1.51150000
C        1.91730000      -0.18380000      -1.53640000
O        2.28950000      -0.64160000      -2.79470000
C        1.11510000      -0.78140000      -3.44540000
N        1.16510000      -1.16650000      -4.75410000
C        2.31020000      -1.89220000      -5.27960000
N        0.05800000      -0.47940000      -2.75190000
H        0.95290000      -0.11370000       1.28250000
H        1.08400000       1.55960000       0.72120000
H       -0.32950000       1.04670000       1.65160000
H       -1.06440000      -0.44550000      -0.21690000
H       -0.93620000       1.20440000      -0.76890000
H        2.71940000      -0.00890000      -0.84310000
H        0.25850000      -1.43870000      -5.10180000
H        2.19390000      -1.99090000      -6.36080000
H        3.22280000      -1.32530000      -5.08450000
H        2.42980000      -2.89480000      -4.84430000
