16
Properties=species:S:1:pos:R:3 gdb_52537=T pbc="F F F"
C       -0.09340000       1.43150000       0.01140000
C       -0.13180000      -0.02170000       0.03580000
C       -0.19550000      -1.22480000       0.06140000
C       -0.23510000      -2.66360000       0.08130000
N       -1.31760000      -3.29440000       0.29490000
N        1.04710000      -3.21840000      -0.15450000
C        1.34690000      -4.57070000      -0.22060000
N        2.68170000      -4.82370000      -0.48170000
O        0.52260000      -5.45770000      -0.10330000
H        0.57830000       1.82310000       0.78320000
H        0.25970000       1.80170000      -0.95730000
H       -1.08900000       1.85130000       0.18850000
H       -1.14220000      -4.30050000       0.25910000
H        1.77250000      -2.55370000      -0.37190000
H        3.37720000      -4.16340000      -0.17030000
H        2.93070000      -5.79220000      -0.35070000
