17
Properties=species:S:1:pos:R:3 gdb_79938=T pbc="F F F"
O       -0.19740000       1.45700000       0.00090000
C       -0.08400000       0.07590000       0.06790000
C       -0.37890000      -0.73350000       1.33460000
C       -1.15480000       0.04160000       2.34570000
C       -2.38630000       0.27640000       1.88970000
C       -3.26490000       1.45720000       1.55440000
O       -3.04820000       1.13150000       0.13690000
C       -2.60890000      -0.25570000       0.50460000
C       -1.28290000      -0.82640000       0.06680000
H       -1.13040000       1.66690000      -0.15170000
H        0.77080000      -0.28880000      -0.49780000
H        0.30810000      -1.52900000       1.60230000
H       -0.67850000       0.53270000       3.18630000
H       -4.32840000       1.36300000       1.80540000
H       -2.90230000       2.45540000       1.81340000
H       -3.45270000      -0.93220000       0.33020000
H       -1.27510000      -1.70820000      -0.56190000
