18
Properties=species:S:1:pos:R:3 gdb_72251=T pbc="F F F"
C       -0.07790000       1.49190000      -0.02190000
C       -0.04310000      -0.00220000      -0.04210000
N        0.88350000      -0.75980000      -0.91540000
C       -0.04150000      -1.95400000      -0.79730000
C        0.52040000      -2.83470000       0.31050000
O        0.54350000      -1.97480000       1.46250000
C       -0.31870000      -0.89840000       1.18000000
C       -1.11540000      -1.08140000      -0.06690000
O       -2.48170000      -1.05500000      -0.25440000
H        0.89240000       1.89620000       0.28660000
H       -0.31680000       1.89760000      -1.01230000
H       -0.83840000       1.85420000       0.67610000
H        0.78710000      -0.38280000      -1.85770000
H       -0.29900000      -2.45050000      -1.73190000
H       -0.12220000      -3.71020000       0.49690000
H        1.54210000      -3.16720000       0.10960000
H       -0.74030000      -0.42490000       2.05990000
H       -2.89780000      -1.60750000       0.41740000
