24
Properties=species:S:1:pos:R:3 gdb_64209=T pbc="F F F"
C       -0.14030000       1.52190000       0.07300000
C       -0.01880000      -0.00250000       0.01260000
C       -1.37940000      -0.64840000      -0.23220000
C        1.14220000      -0.45620000      -0.93180000
C        2.07240000      -0.59010000       0.30300000
C        0.81550000      -0.59380000       1.20410000
N        0.89070000       0.17950000       2.42730000
C       -0.05370000      -0.17380000       3.48490000
C        1.38620000      -0.52790000       3.60550000
H        0.82550000       2.00250000       0.24920000
H       -0.54540000       1.90370000      -0.87140000
H       -0.80960000       1.83380000       0.88090000
H       -1.80960000      -0.31190000      -1.18310000
H       -1.30130000      -1.74050000      -0.27100000
H       -2.09130000      -0.38940000       0.56050000
H        0.93540000      -1.42210000      -1.40230000
H        1.44380000       0.24990000      -1.70980000
H        2.73000000      -1.46080000       0.35420000
H        2.66770000       0.31020000       0.47400000
H        0.48880000      -1.63160000       1.39920000
H       -0.46740000       0.65830000       4.04750000
H       -0.75160000      -0.98830000       3.29600000
H        1.64980000      -1.57890000       3.49590000
H        2.04310000       0.04060000       4.25750000
