18
Properties=species:S:1:pos:R:3 gdb_19932=T pbc="F F F"
C        0.13190000       1.58140000       0.21150000
C        1.35540000       0.75350000      -0.07210000
C        2.20520000       0.32700000       1.12100000
C        1.27200000      -0.46580000       2.04300000
O        0.53220000       0.32840000       3.00870000
C       -0.72470000      -0.20710000       2.53300000
C       -0.03980000      -0.79180000       1.28120000
C       -0.00680000       0.08440000       0.03500000
H        0.02440000       2.00500000       1.20400000
H       -0.24960000       2.20730000      -0.58840000
H        1.84420000       0.86560000      -1.03380000
H        3.02280000      -0.32200000       0.78630000
H        2.65450000       1.16800000       1.66060000
H        1.77700000      -1.30010000       2.54560000
H       -1.12370000      -0.96310000       3.22250000
H       -1.47540000       0.57480000       2.37560000
H       -0.25530000      -1.83510000       1.04520000
H       -0.51940000      -0.27200000      -0.85120000
