23
Properties=species:S:1:pos:R:3 gdb_109070=T pbc="F F F"
C        0.08300000       1.50640000       0.27320000
C       -0.05420000       0.02860000      -0.13460000
C       -1.46890000      -0.46100000      -0.12840000
C       -2.20040000      -0.93820000      -1.14440000
C       -3.52250000      -1.43850000      -0.58510000
C       -3.19300000      -2.73230000       0.23470000
C       -2.34750000      -2.17670000       1.42210000
C       -2.31260000      -0.63720000       1.13520000
C       -3.73180000      -0.42350000       0.56300000
H        1.13270000       1.81620000       0.27070000
H       -0.46510000       2.15300000      -0.41900000
H       -0.31440000       1.68180000       1.27800000
H        0.37650000      -0.11710000      -1.13210000
H        0.54680000      -0.58300000       0.55430000
H       -1.87350000      -1.07220000      -2.16950000
H       -4.33610000      -1.55740000      -1.30170000
H       -4.11200000      -3.20900000       0.59040000
H       -2.65110000      -3.46630000      -0.36610000
H       -2.83280000      -2.37530000       2.38270000
H       -1.34320000      -2.60560000       1.46730000
H       -2.02270000      -0.03120000       1.99510000
H       -3.89700000       0.59520000       0.20370000
H       -4.53080000      -0.70550000       1.25800000
