18
Properties=species:S:1:pos:R:3 gdb_98606=T pbc="F F F"
C        0.03750000       1.53150000       0.25330000
N        0.09290000       0.09740000       0.04740000
C        0.27430000      -0.46430000      -1.18380000
O        0.41130000       0.20670000      -2.19520000
C        0.28350000      -1.98500000      -1.14760000
C       -0.59140000      -2.86060000      -2.10040000
C        0.31500000      -2.51010000      -3.30200000
C        1.19210000      -2.84720000      -2.07460000
O        0.30240000      -3.99980000      -1.78780000
H        0.17260000       2.00390000      -0.72010000
H       -0.92870000       1.83730000       0.66980000
H        0.83200000       1.86730000       0.92890000
H       -0.01280000      -0.50880000       0.84320000
H        0.26820000      -2.38030000      -0.12890000
H       -1.66660000      -3.03590000      -2.05480000
H        0.33050000      -3.27070000      -4.08320000
H        0.31870000      -1.48330000      -3.65930000
H        2.26750000      -3.00950000      -2.00040000
