19
Properties=species:S:1:pos:R:3 gdb_66343=T pbc="F F F"
O       -0.02710000       1.43540000      -0.04570000
C        0.00560000       0.02520000      -0.00980000
C       -1.43600000      -0.52980000       0.04300000
C       -1.51710000      -2.02130000      -0.30730000
C       -0.93720000      -2.30720000      -1.70020000
C        0.32540000      -1.53290000      -1.96600000
C        0.74390000      -0.50890000      -1.22310000
C        0.78470000      -0.40360000       1.23210000
O        1.31140000       0.39910000       1.96470000
H        0.49970000       1.72920000       0.71520000
H       -1.87300000      -0.32970000       1.02760000
H       -2.00850000       0.06030000      -0.68090000
H       -0.97150000      -2.61260000       0.43830000
H       -2.55860000      -2.35560000      -0.25600000
H       -0.74930000      -3.38100000      -1.82200000
H       -1.67400000      -2.05220000      -2.47660000
H        0.90100000      -1.81990000      -2.84350000
H        1.65180000       0.03320000      -1.47260000
H        0.85520000      -1.49280000       1.41760000
