23
Properties=species:S:1:pos:R:3 gdb_91805=T pbc="F F F"
C        0.03190000       1.58310000      -0.10230000
C        0.09290000       0.05810000      -0.03760000
C        0.79360000      -0.60650000      -1.25240000
C        1.20080000      -1.99320000      -0.76280000
C        2.51180000      -2.08990000      -0.00470000
C        1.23020000      -1.95620000       0.75440000
O        0.89900000      -3.06420000       1.54140000
C        0.76620000      -0.56380000       1.22900000
C        1.87190000       0.27790000       1.87950000
H        1.03250000       2.02730000      -0.12100000
H       -0.48960000       1.91010000      -1.00840000
H       -0.50380000       2.00360000       0.75580000
H       -0.93930000      -0.31810000      -0.04050000
H        0.12450000      -0.65360000      -2.11700000
H        1.66770000      -0.02070000      -1.56660000
H        0.85530000      -2.87710000      -1.28740000
H        2.97380000      -3.06990000       0.04520000
H        3.21080000      -1.26120000      -0.05540000
H       -0.06200000      -3.13500000       1.56380000
H       -0.00060000      -0.73070000       1.99560000
H        2.65520000       0.55820000       1.16830000
H        1.47010000       1.20290000       2.30460000
H        2.34700000      -0.28480000       2.68920000
