18
Properties=species:S:1:pos:R:3 gdb_98336=T pbc="F F F"
C       -1.39050000       1.45450000      -0.80030000
O       -1.81500000       0.10000000      -0.63740000
C       -1.10890000      -0.63750000       0.24550000
N       -0.14720000      -0.13010000       0.90530000
N       -1.62490000      -1.92950000       0.31970000
C       -0.91210000      -2.90500000       1.12800000
C       -2.43690000      -2.45160000      -0.76600000
C       -1.64390000      -3.02890000      -1.87140000
N       -0.99900000      -3.48730000      -2.71350000
H       -2.04650000       1.87390000      -1.56420000
H       -1.48890000       2.00580000       0.13800000
H       -0.34710000       1.49550000      -1.12130000
H        0.32200000      -0.80420000       1.49910000
H       -1.52600000      -3.80430000       1.21740000
H        0.05880000      -3.19030000       0.69950000
H       -0.75350000      -2.51090000       2.13510000
H       -3.09730000      -3.23360000      -0.37580000
H       -3.06360000      -1.65410000      -1.16320000
