19
Properties=species:S:1:pos:R:3 gdb_38967=T pbc="F F F"
C       -0.14480000       1.06590000      -0.18300000
C        1.03140000       1.82120000       0.47690000
C        2.18020000       0.78170000       0.55950000
C        2.69860000       0.41730000       1.97330000
C        1.90700000      -0.81330000       2.37170000
O        0.49240000      -0.64130000       2.21800000
C        1.21010000      -1.36140000       1.20100000
C        1.52630000      -0.51020000      -0.02060000
O        0.40630000      -0.10880000      -0.78200000
H       -0.89950000       0.79410000       0.56300000
H       -0.62970000       1.63640000      -0.98070000
H        1.33380000       2.68030000      -0.12750000
H        0.75080000       2.19340000       1.46450000
H        3.00890000       1.10270000      -0.07360000
H        3.76510000       0.16440000       1.94720000
H        2.57830000       1.23480000       2.69180000
H        2.20980000      -1.42730000       3.21660000
H        0.94130000      -2.40950000       1.09790000
H        2.18730000      -1.07120000      -0.69130000
