21
Properties=species:S:1:pos:R:3 gdb_122839=T pbc="F F F"
C       -0.17730000       1.54260000       0.00970000
C       -0.05010000       0.02870000       0.02760000
O       -1.34650000      -0.53350000      -0.00630000
C       -1.33910000      -1.94410000       0.00560000
C       -2.78500000      -2.41650000      -0.04030000
C       -2.91180000      -3.93180000      -0.04650000
O       -1.95830000      -4.66590000      -0.13070000
C       -4.33990000      -4.46180000       0.06390000
O       -4.33750000      -5.86020000      -0.04240000
H        0.81210000       2.00900000       0.03540000
H       -0.69410000       1.87370000      -0.89560000
H       -0.74780000       1.89010000       0.87580000
H        0.53830000      -0.32120000      -0.83760000
H        0.48480000      -0.30460000       0.93320000
H       -0.78240000      -2.34510000      -0.85470000
H       -0.84160000      -2.32820000       0.91020000
H       -3.34410000      -2.00160000       0.80810000
H       -3.27520000      -2.01650000      -0.93800000
H       -4.74510000      -4.10770000       1.02860000
H       -4.94270000      -3.97300000      -0.72140000
H       -5.24440000      -6.16720000       0.04530000
