18
Properties=species:S:1:pos:R:3 gdb_6975=T pbc="F F F"
C        0.33150000       1.48540000      -0.12130000
C       -0.02140000      -0.00190000      -0.01650000
O       -1.43180000      -0.15960000       0.17190000
C        0.49670000      -0.79850000      -1.19920000
C        1.53860000      -1.56390000      -0.88220000
C        1.91380000      -1.42230000       0.57210000
C        0.67370000      -0.71510000       1.17490000
O        0.96200000       0.20300000       2.21350000
H        1.41200000       1.63480000      -0.19390000
H       -0.12650000       1.91850000      -1.01920000
H       -0.03260000       2.01760000       0.76000000
H       -1.88080000       0.44070000      -0.43220000
H        0.05110000      -0.70420000      -2.18420000
H        2.08180000      -2.20290000      -1.57020000
H        2.13650000      -2.37960000       1.05840000
H        2.79860000      -0.78450000       0.70290000
H       -0.04190000      -1.47460000       1.51750000
H        1.21340000      -0.29830000       2.99440000
