17
Properties=species:S:1:pos:R:3 gdb_85571=T pbc="F F F"
C        0.00840000       1.56730000       0.20640000
C        0.08220000       0.04340000      -0.02110000
N        0.79990000      -0.35100000      -1.22040000
C        2.16150000      -0.45200000      -1.26340000
N        2.79020000      -0.50470000      -2.37410000
C        2.80640000      -0.47150000       0.11050000
O        1.97790000      -0.98330000       1.16250000
C        0.66850000      -0.64840000       1.20930000
O        0.01670000      -0.89660000       2.18420000
H        1.00520000       2.00500000       0.31770000
H       -0.47770000       2.04750000      -0.64760000
H       -0.57070000       1.78360000       1.10800000
H       -0.93770000      -0.34240000      -0.09670000
H        0.34870000      -0.22010000      -2.11440000
H        3.78720000      -0.64720000      -2.22370000
H        3.68840000      -1.11340000       0.09330000
H        3.13230000       0.54320000       0.37510000
