12
Properties=species:S:1:pos:R:3 gdb_129098=T pbc="F F F"
N       -0.07850000       1.26820000       0.62030000
C       -0.02620000       0.13290000       0.04300000
C        1.24350000      -0.48750000      -0.37360000
N        1.60130000      -1.45190000      -1.13230000
O        0.75980000      -2.28020000      -1.86530000
N       -0.61270000      -2.38030000      -1.86550000
C       -1.43000000      -1.69770000      -1.15690000
C       -1.33810000      -0.58600000      -0.17370000
O       -2.33800000      -0.25840000       0.41810000
H        0.85640000       1.67120000       0.73200000
H        2.12150000       0.00170000       0.05280000
H       -2.46300000      -2.00120000      -1.32120000
