15
Properties=species:S:1:pos:R:3 gdb_24499=T pbc="F F F"
N       -0.02380000       1.36010000       0.00990000
C        1.28940000       1.76490000      -0.00050000
N        2.14180000       0.77700000      -0.01430000
C        1.35570000      -0.36770000      -0.01310000
C       -0.01600000      -0.02170000       0.00210000
C       -1.03010000      -0.97680000       0.00650000
C       -0.63320000      -2.30800000      -0.00480000
C        0.72620000      -2.67090000      -0.02000000
C        1.73090000      -1.71370000      -0.02440000
H       -0.83230000       1.95810000       0.02120000
H        1.54940000       2.81450000       0.00290000
H       -2.07890000      -0.70060000       0.01820000
H       -1.38890000      -3.08620000      -0.00190000
H        0.98930000      -3.72320000      -0.02850000
H        2.77980000      -1.98700000      -0.03600000
