18
Properties=species:S:1:pos:R:3 gdb_43853=T pbc="F F F"
O        0.01810000      -0.04260000       0.18180000
C        0.00690000       1.16200000       0.03300000
C       -1.29970000       1.95210000      -0.06670000
C       -1.15510000       3.17660000      -0.94990000
C       -1.53580000       3.07130000      -2.38300000
N       -2.34680000       3.87260000      -1.44260000
C       -0.00330000       4.07400000      -0.53410000
C        1.24330000       3.28160000      -0.25560000
C        1.24820000       1.96320000      -0.01840000
H       -2.08650000       1.27800000      -0.41710000
H       -1.56720000       2.26350000       0.95470000
H       -1.00540000       3.64930000      -3.13480000
H       -1.93230000       2.12360000      -2.73840000
H       -3.18790000       3.36110000      -1.18460000
H        0.18790000       4.82980000      -1.30330000
H       -0.28250000       4.63910000       0.36880000
H        2.18230000       3.83060000      -0.25030000
H        2.16820000       1.41590000       0.16120000
