21
Properties=species:S:1:pos:R:3 gdb_67024=T pbc="F F F"
C       -0.05280000       1.53990000      -0.06190000
C       -0.02300000       0.04360000       0.01330000
C        0.45940000      -1.01010000      -0.95580000
C        1.28940000      -1.68870000       0.12120000
C        0.49060000      -0.85880000       1.21030000
C        1.28800000      -0.24190000       2.34160000
C       -0.70970000      -1.70590000       1.58190000
C       -1.54710000      -1.77620000       0.54210000
C       -1.04140000      -0.90910000      -0.55630000
H        0.93320000       1.97690000       0.13490000
H       -0.36490000       1.86810000      -1.05930000
H       -0.75630000       1.96590000       0.66330000
H        0.73480000      -0.90040000      -1.99890000
H        1.26550000      -2.78040000       0.21020000
H        2.32760000      -1.34650000       0.07070000
H        2.13210000       0.34540000       1.96470000
H        0.66500000       0.41890000       2.95470000
H        1.69500000      -1.01830000       2.99960000
H       -0.76750000      -2.27950000       2.50010000
H       -2.43480000      -2.39250000       0.46670000
H       -1.69500000      -0.56590000      -1.35130000
