17
Properties=species:S:1:pos:R:3 gdb_117527=T pbc="F F F"
C        0.12710000       1.39280000      -0.04760000
O       -0.03220000      -0.00640000       0.04310000
C        0.69200000      -0.56990000       1.10610000
C        0.47240000      -2.09100000       1.05650000
C        1.01730000      -2.67960000      -0.16490000
N        1.48330000      -3.19430000      -1.08950000
C        1.01050000      -2.74740000       2.35660000
N        1.72840000      -3.88340000       2.19920000
O        0.75490000      -2.24580000       3.43180000
H        1.17800000       1.67020000      -0.22100000
H       -0.47370000       1.73150000      -0.89410000
H       -0.21970000       1.90070000       0.86510000
H        1.76650000      -0.33990000       1.02320000
H        0.34010000      -0.21400000       2.08300000
H       -0.61210000      -2.25640000       1.05680000
H        1.96310000      -4.25170000       1.29240000
H        2.08710000      -4.33350000       3.02540000
