19
Properties=species:S:1:pos:R:3 gdb_116715=T pbc="F F F"
C        0.17460000       0.87200000       0.53080000
O       -0.44440000       0.10730000      -0.49650000
C       -1.27280000      -0.86890000      -0.07670000
N       -1.81090000      -1.64720000      -0.90610000
C       -2.72700000      -2.65330000      -0.42940000
C       -2.40900000      -4.14030000      -0.75260000
N       -2.66500000      -4.55990000       0.67280000
C       -1.63820000      -3.87110000       1.46720000
C       -2.82130000      -3.09180000       1.04120000
H        0.73940000       1.65920000       0.03030000
H       -0.56830000       1.33100000       1.19470000
H        0.86270000       0.26070000       1.12730000
H       -1.42110000      -0.90490000       1.01240000
H       -3.72270000      -2.40610000      -0.81180000
H       -3.11870000      -4.61770000      -1.42980000
H       -1.38820000      -4.34030000      -1.09170000
H       -1.60670000      -4.20000000       2.50170000
H       -0.66490000      -3.68300000       1.01870000
H       -3.58160000      -2.77070000       1.74690000
