20
Properties=species:S:1:pos:R:3 gdb_91934=T pbc="F F F"
C       -0.01250000       1.55900000       0.00690000
C        0.06340000       0.03720000       0.02050000
O       -1.24240000      -0.54820000      -0.04620000
C        0.79890000      -0.57620000      -1.16280000
N        2.27040000      -0.54320000      -1.00100000
C        1.51500000      -1.78830000      -0.70320000
C        1.26610000      -1.96730000       0.78260000
C        0.82940000      -0.55460000       1.25360000
O        1.92510000       0.23960000       1.66230000
H        0.98420000       2.00260000      -0.00040000
H       -0.56600000       1.89910000      -0.87380000
H       -0.52670000       1.92910000       0.90190000
H       -1.77880000      -0.13620000       0.63950000
H        0.36700000      -0.48810000      -2.15400000
H        2.71590000      -0.61330000      -1.91120000
H        1.65970000      -2.64520000      -1.35230000
H        0.45850000      -2.69180000       0.92640000
H        2.14440000      -2.30340000       1.34040000
H        0.15060000      -0.60470000       2.11090000
H        2.52470000       0.24490000       0.89920000
