17
Properties=species:S:1:pos:R:3 gdb_48466=T pbc="F F F"
O        0.20350000       0.05800000       0.47890000
C        0.17630000       1.22180000       0.19100000
C        1.42140000       2.08760000      -0.10870000
C        1.67130000       3.03960000       1.11970000
C        2.77000000       2.34350000       1.95680000
C        3.40470000       1.39210000       0.97290000
C        2.69080000       1.25460000      -0.13930000
C        1.14520000       2.82180000      -1.33920000
C        0.87320000       3.40770000      -2.35370000
H       -0.77610000       1.79490000       0.13400000
H        2.03030000       3.99770000       0.73800000
H        0.75260000       3.23460000       1.68080000
H        3.48070000       3.06450000       2.37520000
H        2.34980000       1.79190000       2.80830000
H        4.32240000       0.85630000       1.18820000
H        2.91460000       0.60190000      -0.97290000
H        0.65480000       3.93000000      -3.25230000
