21
Properties=species:S:1:pos:R:3 gdb_95271=T pbc="F F F"
C       -0.17820000       1.57290000      -0.10600000
C        0.06760000       0.06730000      -0.03700000
C        0.98760000      -0.48180000      -1.13190000
O        1.39920000      -1.76330000      -0.67830000
C        1.48570000      -1.75940000       0.74990000
C        2.95280000      -1.67020000       1.24380000
C        3.08010000      -0.25740000       1.75260000
C        1.91320000       0.38540000       1.76370000
C        0.77450000      -0.45870000       1.24030000
H        0.76200000       2.13270000      -0.07190000
H       -0.69220000       1.84240000      -1.03470000
H       -0.80300000       1.91370000       0.72630000
H       -0.89390000      -0.45470000      -0.11830000
H        0.48800000      -0.61110000      -2.09710000
H        1.85300000       0.18510000      -1.28010000
H        1.00000000      -2.67650000       1.09660000
H        3.15730000      -2.39840000       2.04030000
H        3.63880000      -1.90340000       0.42180000
H        4.02230000       0.15790000       2.09500000
H        1.76710000       1.39920000       2.12000000
H        0.03800000      -0.65350000       2.02870000
