23
Properties=species:S:1:pos:R:3 gdb_114065=T pbc="F F F"
C        0.21330000       1.52690000       0.07840000
C       -0.16400000       0.05470000      -0.11910000
C        0.62920000      -0.59760000      -1.23730000
O        2.07270000      -0.59660000      -1.01490000
C        2.13600000      -1.99890000      -1.32280000
C        3.30080000      -2.47390000      -2.12810000
C        1.36850000      -2.76920000      -0.28910000
C        0.62900000      -2.11470000      -1.44820000
C       -0.25990000      -2.85610000      -2.40330000
H        1.27840000       1.61930000       0.30850000
H        0.01420000       2.11240000      -0.82620000
H       -0.35540000       1.97500000       0.89860000
H       -0.00660000      -0.49850000       0.81320000
H       -1.23100000      -0.03360000      -0.36430000
H        0.42300000      -0.08210000      -2.18810000
H        4.23280000      -2.35350000      -1.56380000
H        3.19230000      -3.53450000      -2.37360000
H        3.39390000      -1.90580000      -3.05920000
H        1.43330000      -3.85120000      -0.36630000
H        1.29730000      -2.39000000       0.72640000
H       -1.27160000      -2.97910000      -1.99770000
H       -0.34730000      -2.32810000      -3.36000000
H        0.13000000      -3.85790000      -2.61110000
