18
Properties=species:S:1:pos:R:3 gdb_115117=T pbc="F F F"
O       -0.11430000       1.50770000       0.28710000
C        0.04690000       0.11880000       0.12300000
C       -1.29410000      -0.60210000      -0.02610000
O       -1.91730000       0.04830000      -1.15450000
C       -3.18340000      -0.26500000      -1.54590000
N       -3.82480000      -1.34530000      -1.57420000
C       -3.35180000      -2.67160000      -1.25380000
C       -1.99700000      -2.94510000      -0.66120000
C       -1.12160000      -2.08740000      -0.14880000
H       -0.68050000       1.79740000      -0.43800000
H        0.67360000      -0.12520000      -0.75040000
H        0.55550000      -0.25560000       1.01730000
H       -1.91000000      -0.36460000       0.85360000
H       -3.66340000       0.63720000      -1.92870000
H       -4.10410000      -3.13810000      -0.59800000
H       -3.43390000      -3.24940000      -2.18720000
H       -1.74610000      -4.00520000      -0.64300000
H       -0.19440000      -2.47560000       0.26790000
