12
Properties=species:S:1:pos:R:3 gdb_11191=T pbc="F F F"
O        0.05940000       0.03880000      -0.11170000
C        0.00910000       1.22260000      -0.04750000
O       -1.11950000       1.96380000      -0.19230000
C       -0.84810000       3.33240000       0.09430000
C        0.69960000       3.41060000       0.04310000
O        1.07940000       2.03150000       0.19100000
C        1.22040000       3.96920000      -1.19820000
C        1.63090000       4.44810000      -2.21990000
H       -1.32850000       3.95890000      -0.65700000
H       -1.23210000       3.57890000       1.08920000
H        1.10360000       3.95440000       0.90100000
H        2.00250000       4.86580000      -3.12370000
