15
Properties=species:S:1:pos:R:3 gdb_129641=T pbc="F F F"
N        0.00330000       1.38450000       0.10870000
C       -0.05080000       0.00830000       0.05730000
C       -1.20790000      -0.70340000      -0.00020000
N       -2.45600000      -0.05380000      -0.08080000
C       -1.12930000      -2.13700000      -0.06290000
N       -2.19520000      -2.86030000      -0.17090000
C        0.24760000      -2.62700000       0.01520000
N        1.32710000      -1.93420000       0.11430000
O        1.18100000      -0.55360000       0.12770000
H        0.90090000       1.76770000      -0.15530000
H       -0.77370000       1.81620000      -0.37760000
H       -2.64880000       0.52050000       0.73390000
H       -3.17600000      -0.76770000      -0.16040000
H       -1.96610000      -3.85350000      -0.20940000
H        0.42750000      -3.70040000       0.01370000
