17
Properties=species:S:1:pos:R:3 gdb_82423=T pbc="F F F"
N        0.08540000       1.33850000       0.37010000
C       -0.03710000      -0.05300000      -0.04290000
C       -1.48300000      -0.48450000      -0.03380000
N       -2.20540000      -0.24330000      -1.30220000
C       -1.86340000      -1.61520000      -0.89830000
C       -0.77830000      -2.30080000      -1.69330000
O        0.28060000      -1.43440000      -2.10550000
C        0.64110000      -0.33630000      -1.40090000
O        1.51260000       0.37020000      -1.83000000
H        1.04870000       1.62700000       0.21590000
H       -0.46040000       1.90360000      -0.27780000
H        0.50070000      -0.67350000       0.69120000
H       -2.00880000      -0.31920000       0.90220000
H       -3.18840000      -0.05940000      -1.12320000
H       -2.66040000      -2.27940000      -0.57200000
H       -0.35940000      -3.12410000      -1.09830000
H       -1.17670000      -2.72510000      -2.61990000
