17
Properties=species:S:1:pos:R:3 gdb_67982=T pbc="F F F"
C        0.03950000       1.49380000      -0.12320000
C        0.02200000       0.00030000       0.03700000
O        0.43720000      -0.63740000      -1.19470000
C        0.37110000      -1.97400000      -0.89570000
O        0.63950000      -2.85210000      -1.65980000
C       -0.09570000      -1.98020000       0.53970000
C        0.64680000      -0.78220000       1.23660000
C       -0.62750000      -0.50740000       2.07060000
C       -1.15510000      -0.82380000       0.65060000
H        1.04590000       1.83570000      -0.38160000
H       -0.63780000       1.79710000      -0.92660000
H       -0.27010000       1.99260000       0.79790000
H       -0.23730000      -2.93290000       1.04290000
H        1.68890000      -0.77150000       1.55820000
H       -0.86000000      -1.24780000       2.83840000
H       -0.77490000       0.50560000       2.45180000
H       -2.18650000      -0.86100000       0.29800000
