22
Properties=species:S:1:pos:R:3 gdb_99736=T pbc="F F F"
C        0.13790000       1.49260000      -0.27850000
C        0.05770000      -0.01660000       0.00070000
C        0.71860000      -0.32380000       1.35490000
C       -1.38400000      -0.58580000      -0.03300000
C       -2.30050000       0.01460000      -1.12490000
N       -3.70380000      -0.39640000      -0.89660000
H       -3.24200000      -2.00640000      -0.42670000
H       -4.11270000       0.15020000      -0.14430000
H       -4.26840000      -0.23500000      -1.72380000
C       -1.36310000      -2.13180000      -0.13870000
O       -2.56040000      -2.71360000      -0.27000000
O       -0.35110000      -2.78550000      -0.10270000
H        1.16520000       1.84030000      -0.13080000
H       -0.14620000       1.75410000      -1.30200000
H       -0.49960000       2.06480000       0.40730000
H        0.62770000      -0.54340000      -0.77290000
H        0.20700000       0.21060000       2.16580000
H        0.69730000      -1.39240000       1.56960000
H        1.76330000       0.00360000       1.35420000
H       -1.86250000      -0.35040000       0.93180000
H       -2.19800000       1.10370000      -1.14220000
H       -2.00150000      -0.35560000      -2.11190000
