19
Properties=species:S:1:pos:R:3 gdb_83265=T pbc="F F F"
C        0.03050000       1.56320000      -0.09060000
C        0.06900000       0.04620000       0.00300000
O        0.82650000      -0.48100000      -1.09660000
C        1.24200000      -1.80990000      -0.74410000
C        1.49440000      -1.76520000       0.75030000
C        2.25460000      -0.55060000       1.24590000
O        3.05810000       0.24640000       0.42780000
C        0.74660000      -0.53750000       1.24180000
O        0.00720000      -0.57560000       2.42270000
H        1.03540000       1.98620000      -0.01320000
H       -0.41810000       1.88090000      -1.03570000
H       -0.57980000       1.96500000       0.72480000
H       -0.95840000      -0.35310000      -0.02570000
H        0.45730000      -2.54160000      -0.98600000
H        2.12750000      -2.03680000      -1.34590000
H        1.51240000      -2.68550000       1.32210000
H        2.70570000      -0.66080000       2.22750000
H        2.62310000       0.29010000      -0.43530000
H        0.14240000       0.25730000       2.88750000
