15
Properties=species:S:1:pos:R:3 gdb_94484=T pbc="F F F"
O        0.47640000       0.00410000       0.99460000
C       -0.34140000      -0.35780000      -0.08340000
C       -1.09780000       0.83020000      -0.70890000
O       -0.43770000       0.57880000      -1.99650000
C        0.31510000      -0.43480000      -1.45430000
N        1.24180000      -1.12830000      -1.93710000
C        1.64770000      -0.85650000      -3.31670000
C        1.25950000      -1.96070000      -4.20280000
N        0.95330000      -2.82250000      -4.90810000
H        1.12710000      -0.69590000       1.12030000
H       -0.97520000      -1.22640000       0.13820000
H       -2.18080000       0.74300000      -0.80380000
H       -0.80530000       1.79900000      -0.30070000
H        1.22780000       0.07350000      -3.72080000
H        2.73970000      -0.76980000      -3.34600000
