17
Properties=species:S:1:pos:R:3 gdb_96840=T pbc="F F F"
C        0.08550000       1.41350000       0.13560000
N        0.00970000      -0.03610000       0.04890000
C        0.46460000      -0.61540000      -0.97670000
C        0.44100000      -2.11650000      -1.21460000
C        1.44330000      -2.33840000      -2.35400000
O        1.03540000      -3.31530000      -3.27630000
C        1.54520000      -0.95980000      -3.01720000
O        1.95820000      -0.74380000      -4.13240000
N        1.06470000      -0.03890000      -2.11290000
H        1.05370000       1.82220000      -0.19310000
H       -0.70320000       1.88920000      -0.46430000
H       -0.06790000       1.71980000       1.17310000
H        0.65960000      -2.66370000      -0.29830000
H       -0.55410000      -2.41330000      -1.56340000
H        2.44100000      -2.57030000      -1.94310000
H        1.42280000      -3.06190000      -4.12570000
H        1.07070000       0.95010000      -2.31110000
