12
Properties=species:S:1:pos:R:3 gdb_33282=T pbc="F F F"
C        0.02390000      -1.17260000      -0.03490000
C        0.00370000       0.02680000       0.01350000
C       -0.04210000       1.46690000       0.06940000
C        0.55460000       2.18990000       1.22900000
O        1.22220000       2.15800000      -0.01780000
C       -1.12790000       2.08770000      -0.64940000
C       -2.04400000       2.59740000      -1.24860000
C       -3.07870000       3.17900000      -1.92250000
N       -3.96070000       3.67440000      -2.49330000
H        0.04670000      -2.23410000      -0.08150000
H        0.12970000       3.14890000       1.51890000
H        0.99710000       1.59180000       2.02310000
