21
Properties=species:S:1:pos:R:3 gdb_72440=T pbc="F F F"
C       -0.02640000       1.49830000       0.01380000
C        0.00900000      -0.01930000       0.03810000
C        0.77740000      -0.68440000      -1.13570000
O        1.05960000      -2.02220000      -0.68420000
C        0.49430000      -2.11620000       0.64240000
C        0.76300000      -0.71290000       1.19860000
C       -1.02070000      -2.16880000       0.45510000
C       -1.92030000      -1.31370000       1.31370000
C       -1.35010000      -0.74210000       0.04080000
H        0.98520000       1.91920000       0.02070000
H       -0.53540000       1.86990000      -0.88290000
H       -0.56290000       1.89190000       0.88330000
H        0.18370000      -0.71710000      -2.05790000
H        1.72280000      -0.16610000      -1.34830000
H        0.96050000      -2.96500000       1.14350000
H        1.83120000      -0.48300000       1.19930000
H        0.35860000      -0.51150000       2.19040000
H       -1.43180000      -3.02500000      -0.06650000
H       -2.97450000      -1.56830000       1.27330000
H       -1.60410000      -0.96200000       2.28890000
H       -2.02330000      -0.53590000      -0.78530000
