19
Properties=species:S:1:pos:R:3 gdb_103129=T pbc="F F F"
C        0.23090000       1.59330000       0.17720000
C       -0.11060000       0.11340000      -0.04170000
C        0.62480000      -0.47850000      -1.22970000
O        0.37690000       0.15410000      -2.45760000
C        1.97190000      -1.09490000      -1.07070000
O        2.52000000      -1.12130000       0.21040000
C        0.76400000      -1.99340000      -1.41540000
C        0.23620000      -2.96360000      -0.43210000
O       -0.25550000      -4.02490000      -0.73850000
H        1.30170000       1.72690000       0.36260000
H       -0.05210000       2.20340000      -0.68720000
H       -0.31000000       1.98900000       1.04120000
H        0.14360000      -0.44840000       0.85990000
H       -1.18750000      -0.00100000      -0.20940000
H        0.80200000       1.01890000      -2.43710000
H        2.67700000      -0.94530000      -1.88780000
H        3.07290000      -1.90610000       0.29190000
H        0.70040000      -2.32520000      -2.44570000
H        0.33270000      -2.67030000       0.63410000
