14
Properties=species:S:1:pos:R:3 gdb_130366=T pbc="F F F"
N        0.00230000       1.35670000      -0.00830000
C        0.03030000       0.01640000      -0.02810000
N        1.11160000      -0.70750000       0.03100000
H        2.02920000      -0.28020000       0.09830000
C        1.14370000      -2.11590000       0.01010000
N        2.31720000      -2.76940000       0.07640000
C        1.82960000      -4.02480000       0.02420000
O        2.62050000      -5.11940000       0.05850000
N        0.49930000      -4.13350000      -0.06480000
N        0.04370000      -2.84160000      -0.07410000
H        0.83630000       1.91650000       0.05620000
H       -0.87840000       1.83670000      -0.05750000
H       -0.90300000      -0.53270000      -0.09840000
H        3.52530000      -4.79480000       0.12310000
