20
Properties=species:S:1:pos:R:3 gdb_104264=T pbc="F F F"
C       -0.19340000       1.45460000      -0.06440000
O       -0.38160000       0.07860000      -0.32480000
C        0.57730000      -0.52790000      -1.15180000
C        0.51390000      -0.02440000      -2.59300000
C        2.03120000      -0.63760000      -0.59240000
C        2.02620000      -2.14770000      -0.93880000
C        0.46800000      -2.09590000      -1.08810000
C       -0.24400000      -2.60880000       0.07120000
N       -0.78910000      -3.05500000       0.98790000
H        0.81410000       1.66490000       0.32240000
H       -0.36330000       2.07770000      -0.95320000
H       -0.92500000       1.72930000       0.69830000
H        0.81520000       1.02530000      -2.65750000
H        1.18650000      -0.59750000      -3.23850000
H       -0.50510000      -0.11920000      -2.98040000
H        2.79830000      -0.01620000      -1.05920000
H        2.03970000      -0.47430000       0.48790000
H        2.50610000      -2.37230000      -1.89320000
H        2.40750000      -2.83190000      -0.18150000
H        0.05660000      -2.56130000      -1.98760000
