20
Properties=species:S:1:pos:R:3 gdb_105115=T pbc="F F F"
O       -0.04150000       1.49040000       0.23560000
C        0.00930000       0.07890000       0.37170000
C       -1.34700000      -0.50480000       0.00920000
C       -2.56290000       0.27670000       0.34260000
N       -2.11310000       0.14600000      -1.06000000
C       -1.36260000      -2.01640000       0.01500000
C       -2.61950000      -2.76190000      -0.48570000
O       -1.83890000      -3.53860000      -1.41950000
C       -0.66030000      -2.75840000      -1.14970000
H        0.84310000       1.84290000       0.36400000
H        0.77510000      -0.35070000      -0.29480000
H        0.26780000      -0.21520000       1.40160000
H       -3.49210000      -0.23730000       0.57500000
H       -2.42880000       1.23610000       0.83130000
H       -1.63380000       1.00520000      -1.32150000
H       -1.03040000      -2.38070000       0.99260000
H       -3.13660000      -3.39660000       0.24290000
H       -3.34160000      -2.11920000      -1.00160000
H       -0.39820000      -2.10840000      -1.99580000
H        0.20100000      -3.38750000      -0.89500000
