16
Properties=species:S:1:pos:R:3 gdb_72764=T pbc="F F F"
O        0.35680000       1.39980000       0.03860000
C        0.17800000      -0.00320000       0.00220000
C        0.15020000      -0.49780000       1.48790000
N       -1.34870000      -0.52190000       1.35710000
C       -1.25950000      -0.47100000      -0.00880000
C       -1.72260000      -0.87370000      -1.20760000
C       -0.55040000      -0.90960000      -2.11760000
O       -0.53620000      -1.20180000      -3.29070000
C        0.74210000      -0.66050000      -1.25600000
H        0.02900000       1.76360000      -0.79220000
H        0.57850000      -1.49190000       1.64600000
H        0.52430000       0.21770000       2.22140000
H       -1.95990000      -1.15110000       1.86060000
H       -2.68480000      -1.28220000      -1.48190000
H        1.48140000      -0.04930000      -1.77840000
H        1.18790000      -1.64160000      -1.06340000
