23
Properties=species:S:1:pos:R:3 gdb_122530=T pbc="F F F"
C       -0.17810000       1.51150000      -0.39730000
C       -0.05460000       0.05930000       0.03260000
O       -1.33130000      -0.53940000      -0.03230000
C       -1.33150000      -1.89710000       0.36030000
C       -2.75070000      -2.40080000       0.31210000
C       -3.34150000      -2.94540000      -0.96380000
C       -3.10670000      -3.86770000       0.20560000
C       -2.07800000      -4.96610000       0.13210000
O       -2.69720000      -6.09410000      -0.47480000
H        0.79670000       2.00690000      -0.35740000
H       -0.56030000       1.57690000      -1.41990000
H       -0.86830000       2.04780000       0.26010000
H        0.65370000      -0.47840000      -0.62170000
H        0.34710000      -0.00770000       1.05880000
H       -0.67750000      -2.48450000      -0.30520000
H       -0.92010000      -1.99340000       1.38090000
H       -3.41780000      -1.80910000       0.93280000
H       -4.35890000      -2.67930000      -1.22660000
H       -2.67430000      -3.04690000      -1.81440000
H       -3.99080000      -4.16950000       0.76060000
H       -1.20380000      -4.63790000      -0.45070000
H       -1.72040000      -5.21450000       1.14490000
H       -2.07250000      -6.82510000      -0.45040000
