20
Properties=species:S:1:pos:R:3 gdb_98317=T pbc="F F F"
C       -0.30140000       1.30690000      -0.09890000
O       -0.19380000      -0.11190000      -0.22290000
C        0.68770000      -0.55780000      -1.13860000
N        1.32610000       0.25050000      -1.88590000
N        0.73630000      -1.95520000      -1.09390000
C        0.19530000      -2.68450000       0.05510000
C        1.20780000      -2.67020000      -2.18220000
N        1.30890000      -3.93330000      -2.18830000
C        1.78880000      -4.55860000      -3.40180000
H        0.66920000       1.75010000       0.13740000
H       -0.66740000       1.74940000      -1.02860000
H       -1.01130000       1.47410000       0.71220000
H        2.01780000      -0.21230000      -2.46530000
H       -0.89620000      -2.74840000       0.00740000
H        0.61410000      -3.68910000       0.02720000
H        0.47610000      -2.18020000       0.97950000
H        1.45870000      -2.03910000      -3.04200000
H        1.03470000      -5.25720000      -3.78330000
H        2.03300000      -3.84410000      -4.20510000
H        2.68600000      -5.15010000      -3.18390000
