20
Properties=species:S:1:pos:R:3 gdb_105183=T pbc="F F F"
C       -0.20160000       1.50240000      -0.15770000
C        0.02990000       0.01280000      -0.02420000
C        1.36100000      -0.61360000      -0.30000000
C        0.80080000      -0.61470000       1.12590000
C        1.46040000       0.26380000       2.17380000
N        2.55120000      -0.46660000       2.85310000
H        1.50290000      -1.85920000       3.01890000
H        3.31540000      -0.64210000       2.20710000
H        2.92270000       0.07290000       3.62790000
C        0.25970000      -1.96300000       1.57660000
O        0.74610000      -2.43490000       2.73020000
O       -0.54740000      -2.58490000       0.92990000
H        0.69510000       2.09110000       0.05660000
H       -0.50530000       1.74050000      -1.18260000
H       -0.99920000       1.84690000       0.50960000
H       -0.81570000      -0.60450000      -0.31030000
H        1.39040000      -1.56260000      -0.82230000
H        2.20400000       0.04520000      -0.49130000
H        1.80390000       1.19870000       1.71470000
H        0.73080000       0.53460000       2.94620000
