25
Properties=species:S:1:pos:R:3 gdb_60113=T pbc="F F F"
C       -0.07190000       1.56710000      -0.00950000
C       -0.01300000       0.03540000      -0.05980000
C        1.02880000      -0.50820000       0.92560000
C       -1.41480000      -0.56760000       0.20160000
C       -1.50880000      -2.05370000       0.01620000
C       -1.80110000      -2.96390000       0.94940000
C       -1.88670000      -4.36680000       0.39950000
C       -1.26300000      -4.22190000      -1.01250000
C       -1.35060000      -2.71220000      -1.34400000
H        0.90940000       2.00820000      -0.21340000
H       -0.77900000       1.96620000      -0.74460000
H       -0.39100000       1.91370000       0.98100000
H        0.29400000      -0.25500000      -1.07390000
H        0.78120000      -0.21370000       1.95300000
H        1.07430000      -1.60060000       0.89820000
H        2.02650000      -0.11750000       0.70010000
H       -1.72620000      -0.30480000       1.22090000
H       -2.12740000      -0.07710000      -0.47800000
H       -2.00830000      -2.73000000       1.98900000
H       -1.36020000      -5.10490000       1.01560000
H       -2.93340000      -4.70200000       0.35220000
H       -0.21110000      -4.52310000      -0.97510000
H       -1.75120000      -4.85120000      -1.76120000
H       -2.22140000      -2.47910000      -1.97530000
H       -0.47430000      -2.35630000      -1.89730000
