14
Properties=species:S:1:pos:R:3 gdb_10245=T pbc="F F F"
C       -0.19020000       1.47940000       0.01270000
C        0.07350000      -0.01100000       0.02510000
N        0.29260000      -0.71080000       1.06330000
N        0.04250000      -0.68910000      -1.22680000
C        0.25970000       0.00320000      -2.43610000
O        0.13790000      -0.45570000      -3.53550000
C       -0.21850000      -2.09800000      -1.20780000
O       -0.08930000      -2.82570000      -2.14670000
H        0.67230000       2.03950000      -0.36340000
H       -1.05120000       1.73750000      -0.61020000
H       -0.38040000       1.81470000       1.03390000
H        0.22620000      -0.14070000       1.90450000
H        0.57110000       1.04570000      -2.25790000
H       -0.55390000      -2.40760000      -0.20910000
