17
Properties=species:S:1:pos:R:3 gdb_7858=T pbc="F F F"
C        0.36140000       1.40520000      -0.36410000
C       -0.11610000       0.06270000       0.13050000
N        0.89430000      -0.99310000       0.31860000
H        0.55190000      -1.90370000       0.02850000
H        2.45860000      -1.07330000       1.27470000
C        0.14480000      -0.48400000       1.49350000
C        0.96500000       0.22410000       2.55860000
C        2.15820000      -0.58310000       3.09100000
O        2.90460000      -1.17710000       2.14580000
O        2.43900000      -0.64570000       4.25750000
H        1.33990000       1.66420000       0.04590000
H        0.45510000       1.39330000      -1.45470000
H       -0.35010000       2.19280000      -0.09490000
H       -1.05300000      -0.26540000      -0.31710000
H       -0.61790000      -1.14950000       1.89130000
H        1.37350000       1.16160000       2.16580000
H        0.33740000       0.48060000       3.41360000
