16
Properties=species:S:1:pos:R:3 gdb_51493=T pbc="F F F"
O       -0.15680000       0.06300000       0.53510000
C       -0.04440000       1.21320000       0.16560000
N        1.11290000       1.79490000      -0.24600000
C        2.39630000       1.11220000      -0.23910000
C        3.00190000       0.97610000      -1.63170000
C        4.20070000       1.55330000      -1.72230000
C        4.56350000       2.19020000      -0.41700000
O        3.63470000       3.23550000      -0.02180000
C        3.46270000       1.91720000       0.51190000
H       -0.89570000       1.92020000       0.12020000
H        1.12250000       2.77250000      -0.49560000
H        2.21820000       0.13810000       0.22620000
H        2.45330000       0.50250000      -2.43740000
H        4.82560000       1.60070000      -2.60520000
H        5.59050000       2.34970000      -0.10600000
H        3.57380000       1.82330000       1.58790000
