19
Properties=species:S:1:pos:R:3 gdb_107585=T pbc="F F F"
C       -0.40850000       1.53240000      -0.30480000
C        0.00130000       0.09160000       0.03130000
C        0.88260000      -0.51590000      -1.02430000
O        0.28220000      -0.81400000      -2.31260000
C        0.81990000      -1.89470000      -1.55460000
C        2.17490000      -2.35230000      -2.06830000
C        2.99510000      -1.04730000      -2.18210000
C        2.31180000      -0.05530000      -1.23270000
O        2.82910000       0.88860000      -0.68960000
H        0.47170000       2.17540000      -0.37760000
H       -0.94300000       1.56670000      -1.25870000
H       -1.06700000       1.93610000       0.46950000
H        0.54340000       0.07040000       0.98390000
H       -0.88810000      -0.53680000       0.15080000
H        0.09270000      -2.60880000      -1.17470000
H        2.62610000      -3.03870000      -1.34330000
H        2.08560000      -2.88750000      -3.01800000
H        4.04700000      -1.15800000      -1.91370000
H        2.95490000      -0.63500000      -3.19520000
