17
Properties=species:S:1:pos:R:3 gdb_60696=T pbc="F F F"
N       -0.02340000       0.89900000      -0.86120000
C       -0.19040000      -0.24010000      -0.12540000
C        1.05940000      -1.06250000       0.00400000
O        2.13030000      -0.70310000      -0.42220000
N       -1.23210000      -0.71680000       0.45050000
C       -2.47630000       0.02350000       0.37880000
C       -3.26160000      -0.34260000      -0.90750000
C       -4.53630000       0.35550000      -0.99350000
C       -5.57980000       0.95080000      -1.03390000
H        0.93610000       1.15210000      -1.04850000
H       -0.69630000       1.64450000      -0.80990000
H        0.89920000      -2.01570000       0.54040000
H       -3.08800000      -0.24280000       1.24550000
H       -2.34000000       1.11670000       0.41420000
H       -2.64570000      -0.10930000      -1.78430000
H       -3.41850000      -1.42720000      -0.91910000
H       -6.50730000       1.46530000      -1.08270000
