19
Properties=species:S:1:pos:R:3 gdb_56978=T pbc="F F F"
C       -0.03720000       1.55880000       0.03790000
C       -0.11050000       0.01810000       0.03490000
C       -1.50590000      -0.42970000      -0.03980000
N       -2.61290000      -0.75610000      -0.09710000
C        0.70410000      -0.57160000      -1.12640000
C        2.25390000      -0.44060000      -1.11620000
C        2.27900000      -1.96310000      -1.23790000
C        1.55770000      -2.58860000      -0.11800000
N        0.75930000      -2.07330000      -1.24890000
H        1.00330000       1.88190000       0.13090000
H       -0.44610000       1.96880000      -0.88970000
H       -0.60470000       1.97430000       0.87360000
H        0.29380000      -0.34840000       0.98580000
H        0.28400000      -0.19410000      -2.06250000
H        2.64100000       0.08960000      -1.98710000
H        2.72530000      -0.02950000      -0.21730000
H        2.88920000      -2.52720000      -1.93470000
H        1.53440000      -3.67230000      -0.06910000
H        1.52680000      -2.09820000       0.85220000
