17
Properties=species:S:1:pos:R:3 gdb_76532=T pbc="F F F"
C       -0.15960000       1.48380000      -0.21010000
C        0.01840000      -0.01650000      -0.17150000
C        1.39180000      -0.65010000      -0.18950000
O        2.52690000       0.14550000      -0.11630000
C        0.55000000      -0.68410000       1.07370000
O        1.04760000       0.05590000       2.20220000
C        0.71170000      -1.01910000       3.12330000
C        0.11920000      -1.81650000       1.94400000
O       -0.43560000      -2.86400000       1.79680000
H        0.68790000       1.99040000       0.25420000
H       -0.23010000       1.82700000      -1.24680000
H       -1.07100000       1.78650000       0.31360000
H       -0.75220000      -0.60380000      -0.66690000
H        1.53480000      -1.57510000      -0.74270000
H        2.66490000       0.35450000       0.81950000
H        1.59700000      -1.46060000       3.59290000
H       -0.00380000      -0.69870000       3.88720000
