13
Properties=species:S:1:pos:R:3 gdb_133187=T pbc="F F F"
C       -0.03370000       1.50620000       0.01380000
C       -0.00550000       0.00850000      -0.02760000
N       -0.02980000      -0.61850000      -1.16220000
C       -0.00250000      -2.01910000      -1.18170000
O       -0.02160000      -2.69190000      -2.18420000
N        0.05060000      -2.62780000       0.08270000
N        0.07680000      -2.01290000       1.27020000
C        0.04940000      -0.73240000       1.21110000
F        0.07350000      -0.05840000       2.35430000
H        0.85440000       1.89110000       0.52650000
H       -0.07450000       1.89930000      -1.00150000
H       -0.90120000       1.85640000       0.58360000
H        0.07170000      -3.63800000       0.11290000
