18
Properties=species:S:1:pos:R:3 gdb_56309=T pbc="F F F"
O       -0.88600000       0.26480000       1.25860000
C       -0.49540000       1.47210000       0.82210000
O        0.34800000       2.13070000       1.36440000
C       -1.21090000       1.91030000      -0.46670000
N       -2.42380000       1.12500000      -0.69820000
H       -2.56810000       0.98020000      -1.69110000
H       -1.58040000      -0.02030000       0.62670000
C       -3.63100000       1.69860000      -0.09760000
C       -4.83540000       0.76900000      -0.31930000
C       -6.06260000       1.30860000       0.25030000
C       -7.05940000       1.77660000       0.73060000
H       -1.38240000       2.99310000      -0.40960000
H       -0.50790000       1.73860000      -1.28860000
H       -3.45670000       1.81380000       0.97740000
H       -3.85950000       2.70000000      -0.49420000
H       -4.97310000       0.60360000      -1.39700000
H       -4.61440000      -0.21310000       0.11580000
H       -7.94660000       2.17930000       1.15330000
