16
Properties=species:S:1:pos:R:3 gdb_55892=T pbc="F F F"
N       -0.08510000       1.33850000       0.02580000
C        0.05090000      -0.03810000       0.00070000
O        1.10650000      -0.59750000      -0.22850000
N       -1.10320000      -0.72210000       0.33870000
C       -1.16170000      -2.13400000       0.19740000
C       -2.16780000      -2.94970000       0.93300000
C       -2.30550000      -2.79870000      -0.58580000
C       -3.34310000      -1.94860000      -1.08600000
N       -4.15150000      -1.20740000      -1.45780000
H        0.70210000       1.81630000      -0.38460000
H       -0.98200000       1.74500000      -0.19210000
H       -1.96890000      -0.21660000       0.44370000
H       -0.17230000      -2.54060000       0.03230000
H       -1.88000000      -3.92610000       1.30530000
H       -2.90340000      -2.43260000       1.53930000
H       -2.06280000      -3.65160000      -1.20920000
