17
Properties=species:S:1:pos:R:3 gdb_39590=T pbc="F F F"
C        0.17260000       1.39220000      -0.41200000
C        1.25510000       2.14960000       0.38480000
N        2.29350000       1.31890000       0.99840000
C        2.14400000       0.06910000       0.87340000
N        2.90910000      -0.90650000       1.51650000
C        2.10320000      -2.05990000       1.62310000
C        0.97340000      -1.97250000       0.90910000
C        1.00840000      -0.66540000       0.16320000
O       -0.15380000       0.13740000       0.18020000
H       -0.75330000       1.97250000      -0.44440000
H        0.50780000       1.22770000      -1.44970000
H        1.72840000       2.89120000      -0.27080000
H        0.78970000       2.71810000       1.20060000
H        3.49840000      -0.61520000       2.28390000
H        2.46960000      -2.89500000       2.20440000
H        0.25120000      -2.75790000       0.74840000
H        1.29660000      -0.85370000      -0.89060000
