14
Properties=species:S:1:pos:R:3 gdb_27502=T pbc="F F F"
N        0.10810000       1.34630000       0.28210000
C       -0.03200000       0.00540000       0.02580000
C       -1.19740000      -0.68900000       0.15910000
C       -1.23490000      -2.10160000      -0.06480000
O       -2.16910000      -2.84810000       0.00600000
O        0.01340000      -2.69300000      -0.43800000
C        1.18080000      -2.02070000      -0.55080000
N        2.29740000      -2.54800000      -0.82760000
N        1.11190000      -0.64570000      -0.34300000
H        0.80690000       1.84420000      -0.24970000
H       -0.75500000       1.85820000       0.38020000
H       -2.12260000      -0.19750000       0.42060000
H        2.19240000      -3.55270000      -0.94740000
H        2.00710000      -0.18250000      -0.32820000
