24
Properties=species:S:1:pos:R:3 gdb_7457=T pbc="F F F"
C       -0.07800000       1.59780000       0.08450000
C        0.01940000       0.06580000       0.02520000
C        0.82800000      -0.46670000       1.21700000
C       -1.39290000      -0.55550000      -0.06730000
O       -2.10450000      -0.02570000      -1.18940000
C       -1.45200000      -2.10190000      -0.05540000
C       -2.91170000      -2.57290000       0.01210000
C       -0.72910000      -2.73810000      -1.25240000
H        0.91500000       2.05580000       0.03320000
H       -0.68560000       1.98490000      -0.73580000
H       -0.54400000       1.91920000       1.02400000
H        0.55890000      -0.20060000      -0.89680000
H        0.28490000      -0.31560000       2.15780000
H        1.05460000      -1.53250000       1.12850000
H        1.78050000       0.06670000       1.30030000
H       -1.96660000      -0.20110000       0.80060000
H       -1.58780000      -0.21650000      -1.97970000
H       -0.95050000      -2.43650000       0.86090000
H       -3.47120000      -2.21390000      -0.85640000
H       -2.97170000      -3.66580000       0.03570000
H       -3.41010000      -2.18980000       0.90910000
H       -1.18690000      -2.43370000      -2.20130000
H        0.33270000      -2.47470000      -1.28840000
H       -0.79550000      -3.82940000      -1.20490000
