16
Properties=species:S:1:pos:R:3 gdb_30503=T pbc="F F F"
C        0.02470000       1.39840000      -0.00370000
N        0.03740000      -0.05070000       0.00060000
C       -1.09120000      -0.63610000       0.00010000
N       -2.38880000      -0.14200000      -0.00400000
C       -3.31630000      -1.18820000      -0.00220000
C       -2.64300000      -2.34730000       0.00240000
N       -1.27040000      -2.04000000       0.00380000
C       -0.24370000      -2.96990000       0.00830000
O       -0.43670000      -4.16230000       0.01150000
H        1.05220000       1.76990000      -0.00210000
H       -0.47220000       1.81770000      -0.89500000
H       -0.47690000       1.82300000       0.88240000
H       -2.60580000       0.83700000      -0.00620000
H       -4.37680000      -1.00240000      -0.00470000
H       -2.96630000      -3.37200000       0.00480000
H        0.74110000      -2.48110000       0.00860000
