11
Properties=species:S:1:pos:R:3 gdb_21852=T pbc="F F F"
O        0.12660000       1.36530000       0.04210000
C        0.08110000       0.02900000      -0.02550000
C        0.01800000      -0.75480000      -1.16970000
N       -0.00570000      -2.02060000      -0.64100000
N        0.03820000      -2.01650000       0.68780000
N        0.09150000      -0.76180000       1.06880000
C       -0.01750000      -0.46060000      -2.53980000
C       -0.04860000      -0.22070000      -3.71970000
H        0.16500000       1.59840000       0.97910000
H       -0.05050000      -2.89520000      -1.14070000
H       -0.07540000       0.00490000      -4.75710000
