21
Properties=species:S:1:pos:R:3 gdb_100160=T pbc="F F F"
C        0.09010000       1.30630000      -0.07890000
O       -0.05870000      -0.09060000       0.05300000
C       -1.38890000      -0.61260000       0.13830000
C       -2.15380000      -0.05520000       1.34570000
C       -2.16650000      -0.39460000      -1.16610000
C       -1.09260000      -2.10940000       0.34670000
O       -2.30430000      -2.85750000       0.47420000
C       -2.51340000      -3.89240000      -0.36210000
O       -3.49510000      -4.56970000      -0.31820000
H        1.16480000       1.49550000      -0.13740000
H       -0.37910000       1.69740000      -0.99200000
H       -0.31140000       1.85640000       0.78270000
H       -2.44300000       0.98840000       1.19530000
H       -3.06510000      -0.63620000       1.50730000
H       -1.53770000      -0.11910000       2.24800000
H       -1.58370000      -0.74680000      -2.02300000
H       -3.11480000      -0.93760000      -1.13870000
H       -2.39980000       0.66230000      -1.32020000
H       -0.49530000      -2.48020000      -0.49440000
H       -0.51520000      -2.23980000       1.26620000
H       -1.68180000      -4.03640000      -1.07930000
