24
Properties=species:S:1:pos:R:3 gdb_118694=T pbc="F F F"
C       -0.85090000       1.50900000      -0.35790000
O       -0.68710000       0.11460000      -0.44280000
C       -1.81230000      -0.60120000       0.03640000
C       -1.49110000      -2.07990000      -0.02020000
C       -0.34250000      -2.47760000       0.88990000
C       -2.57580000      -3.07790000      -0.31000000
C       -4.03980000      -2.74530000      -0.51630000
N       -1.52570000      -2.80670000      -1.29540000
C       -1.82300000      -2.12440000      -2.54550000
H        0.06080000       1.97080000      -0.74490000
H       -1.70770000       1.85930000      -0.95590000
H       -1.00390000       1.84020000       0.68180000
H       -2.02650000      -0.31460000       1.08100000
H       -2.69980000      -0.33770000      -0.55450000
H       -0.59170000      -2.28850000       1.94100000
H       -0.11550000      -3.53920000       0.76980000
H        0.55360000      -1.90090000       0.64520000
H       -2.44610000      -4.05180000       0.16580000
H       -4.21420000      -1.77120000      -0.97560000
H       -4.51160000      -3.50040000      -1.15510000
H       -4.56450000      -2.75760000       0.44520000
H       -2.64420000      -1.39410000      -2.51410000
H       -0.92340000      -1.59690000      -2.87430000
H       -2.07650000      -2.87560000      -3.30110000
