16
Properties=species:S:1:pos:R:3 gdb_28591=T pbc="F F F"
N        0.10900000       0.96600000      -0.99900000
C       -0.05270000      -0.15630000      -0.17240000
C       -0.83670000      -0.43290000       0.92110000
N       -0.51680000      -1.66760000       1.44720000
C        0.43130000      -2.14140000       0.67490000
N        0.75310000      -1.26330000      -0.32750000
C        1.08990000      -3.45340000       0.79380000
C        1.21280000      -4.38190000      -0.34600000
O        2.32500000      -3.58820000       0.07280000
H       -0.19700000       0.79950000      -1.95320000
H       -0.40940000       1.75620000      -0.63630000
H       -1.60380000       0.18840000       1.35850000
H        1.55370000      -1.34440000      -0.93320000
H        1.08120000      -3.87000000       1.79870000
H        1.30590000      -5.45100000      -0.16070000
H        0.77490000      -4.10750000      -1.30430000
