23
Properties=species:S:1:pos:R:3 gdb_114865=T pbc="F F F"
C       -0.40260000       1.37280000      -0.32810000
C       -0.26850000      -0.15070000      -0.37910000
C        0.95650000      -0.61200000      -1.18060000
C        1.09490000      -2.14800000      -1.31210000
C        0.56530000      -2.47140000      -2.71480000
C       -0.97660000      -2.59420000      -2.91230000
C       -0.98790000      -1.24570000      -3.69010000
C        0.54320000      -1.09530000      -3.44440000
O        0.94310000      -0.10120000      -2.52080000
H        0.46670000       1.82790000       0.16030000
H       -0.46770000       1.78540000      -1.33820000
H       -1.29470000       1.67580000       0.22840000
H       -0.17530000      -0.55410000       0.63790000
H       -1.17740000      -0.59290000      -0.80410000
H        1.84790000      -0.18080000      -0.70650000
H        2.14800000      -2.43440000      -1.23500000
H        0.55190000      -2.67670000      -0.52290000
H        1.13980000      -3.26280000      -3.19890000
H       -1.28450000      -3.46020000      -3.50260000
H       -1.55220000      -2.60160000      -1.98280000
H       -1.25460000      -1.34280000      -4.74580000
H       -1.58480000      -0.44070000      -3.25640000
H        1.15120000      -0.97240000      -4.34520000
