16
Properties=species:S:1:pos:R:3 gdb_33633=T pbc="F F F"
N       -0.46450000      -1.23700000       0.11430000
C       -0.27010000      -0.09890000       0.02740000
C       -0.03580000       1.29690000      -0.08030000
C       -0.53480000       2.45080000       0.76310000
C        0.92230000       2.76840000       1.26820000
C        1.30940000       2.07200000      -0.04550000
C        1.42400000       2.86350000      -1.12940000
C        0.09770000       2.92280000      -1.87690000
C       -0.82480000       2.35590000      -0.78060000
H       -1.39440000       2.39970000       1.42640000
H        1.23260000       3.80990000       1.38110000
H        1.10260000       2.21210000       2.19380000
H        2.09260000       3.71950000      -1.14160000
H       -0.10600000       3.96670000      -2.14150000
H       -0.00110000       2.33220000      -2.79770000
H       -1.87760000       2.18130000      -0.99240000
