22
Properties=species:S:1:pos:R:3 gdb_68224=T pbc="F F F"
C       -0.04840000       1.57860000      -0.01780000
C        0.03910000       0.06310000       0.02590000
C        1.08990000      -0.66490000      -0.87190000
C        1.12700000      -1.75410000       0.24480000
C        0.73980000      -0.62370000       1.23410000
C       -0.02640000      -2.69890000      -0.03920000
C       -1.17470000      -2.87740000       0.88650000
N       -1.32370000      -2.06360000      -0.32340000
C       -1.34060000      -0.59160000      -0.20000000
H        0.93470000       2.03260000       0.14630000
H       -0.42140000       1.92850000      -0.98750000
H       -0.72630000       1.96140000       0.75470000
H        0.78720000      -0.97420000      -1.87660000
H        2.02350000      -0.09760000      -0.92440000
H        2.05860000      -2.29750000       0.41820000
H        1.62710000      -0.06190000       1.54220000
H        0.15190000      -0.85760000       2.12480000
H        0.22450000      -3.51340000      -0.71910000
H       -1.73820000      -3.80780000       0.87850000
H       -1.14860000      -2.38440000       1.85430000
H       -2.03080000      -0.29830000       0.60220000
H       -1.75890000      -0.20020000      -1.13680000
