23
Properties=species:S:1:pos:R:3 gdb_68019=T pbc="F F F"
C       -0.04270000       1.52670000       0.04980000
C        0.03200000       0.01630000       0.05450000
C        0.89780000      -0.79660000      -0.97790000
C        0.74460000      -1.93060000       0.10230000
C        1.66200000      -3.13110000       0.16430000
C        0.83250000      -0.76870000       1.13230000
C       -0.77540000      -2.19200000      -0.02160000
C       -1.73030000      -1.70880000       1.04370000
C       -1.29570000      -0.77020000      -0.05650000
H        0.95510000       1.97690000       0.08460000
H       -0.54370000       1.89600000      -0.85300000
H       -0.60750000       1.89580000       0.91360000
H        0.46520000      -0.97930000      -1.96680000
H        1.92320000      -0.42370000      -1.07230000
H        2.71410000      -2.82930000       0.20280000
H        1.45500000      -3.73970000       1.05200000
H        1.53190000      -3.77520000      -0.71360000
H        1.85600000      -0.39210000       1.21090000
H        0.42380000      -0.89360000       2.13680000
H       -1.10290000      -2.94810000      -0.72770000
H       -2.74640000      -2.08280000       0.95650000
H       -1.41770000      -1.56910000       2.07160000
H       -2.02250000      -0.43540000      -0.78950000
