23
Properties=species:S:1:pos:R:3 gdb_100775=T pbc="F F F"
C       -0.01430000       1.55610000       0.20990000
C        0.00280000       0.04200000      -0.04140000
C       -1.41630000      -0.53010000      -0.00590000
O       -1.96780000      -0.28700000       1.28260000
C        0.69180000      -0.35440000      -1.36590000
O        0.00550000       0.18680000      -2.49870000
C        2.17000000      -0.02880000      -1.39620000
C        3.17450000      -1.02110000      -0.86390000
C        3.07420000      -0.76820000      -2.34690000
H        0.99280000       1.96410000       0.33520000
H       -0.50080000       2.08770000      -0.61690000
H       -0.58290000       1.77190000       1.11640000
H        0.56490000      -0.43920000       0.77020000
H       -2.01690000      -0.06020000      -0.79780000
H       -1.38110000      -1.61140000      -0.21760000
H       -2.89790000      -0.52810000       1.25990000
H        0.58680000      -1.44130000      -1.48600000
H        0.24850000       1.11520000      -2.57270000
H        2.40700000       1.01980000      -1.23130000
H        4.03870000      -0.64280000      -0.32930000
H        2.79920000      -1.96580000      -0.48360000
H        2.62560000      -1.53760000      -2.96630000
H        3.87400000      -0.21900000      -2.83100000
