21
Properties=species:S:1:pos:R:3 gdb_114251=T pbc="F F F"
C        0.05200000       1.41080000       0.47350000
C        0.01700000      -0.07840000       0.11820000
C       -1.36430000      -0.54050000      -0.30880000
C       -1.63300000      -2.05680000      -0.40630000
C       -2.69050000      -1.80350000       0.68130000
C       -4.17590000      -2.18150000       0.51660000
O       -4.12130000      -3.04550000       1.67050000
C       -2.78470000      -2.60770000       1.99030000
O       -2.34680000      -0.41580000       0.75830000
H        1.04730000       1.71460000       0.81030000
H       -0.21300000       2.03040000      -0.39050000
H       -0.66150000       1.62790000       1.27340000
H        0.71850000      -0.29470000      -0.69880000
H        0.33730000      -0.67820000       0.97940000
H       -1.69620000       0.02650000      -1.18980000
H       -2.01700000      -2.41950000      -1.36140000
H       -0.79770000      -2.68690000      -0.09090000
H       -4.85150000      -1.32840000       0.66200000
H       -4.45510000      -2.72380000      -0.39510000
H       -2.08890000      -3.44740000       2.10940000
H       -2.75290000      -1.97090000       2.88420000
