16
Properties=species:S:1:pos:R:3 gdb_10266=T pbc="F F F"
C        0.13340000       1.48410000      -0.00210000
N        0.06710000       0.02900000       0.08970000
C        0.77040000      -0.48550000       1.26360000
C       -1.27950000      -0.49560000      -0.04790000
C       -1.22600000      -1.99110000      -0.41300000
O       -1.98760000      -2.82530000      -0.01680000
C       -2.16850000      -0.23640000       1.10590000
N       -2.79950000       0.02570000       2.03750000
H        1.18290000       1.79120000      -0.01850000
H       -0.33260000       1.81740000      -0.93440000
H       -0.36260000       1.99650000       0.83890000
H        0.33990000      -0.13320000       2.21500000
H        0.74910000      -1.57980000       1.26540000
H        1.81560000      -0.16890000       1.21650000
H       -1.73320000      -0.01300000      -0.92710000
H       -0.39620000      -2.20590000      -1.11920000
