21
Properties=species:S:1:pos:R:3 gdb_104871=T pbc="F F F"
C       -0.00230000       1.27570000      -0.28110000
C       -0.04730000      -0.20470000       0.10470000
C       -1.47240000      -0.75680000       0.23540000
O       -2.07500000      -0.00880000       1.26900000
C       -3.45720000      -0.23040000       1.48060000
O       -2.18240000      -0.57930000      -0.99700000
C       -2.64330000      -1.82320000      -1.50970000
C       -2.19390000      -2.85170000      -0.51130000
C       -1.52710000      -2.25360000       0.46670000
H        1.03290000       1.61550000      -0.38270000
H       -0.51270000       1.43940000      -1.23380000
H       -0.49430000       1.88810000       0.47760000
H        0.47220000      -0.81150000      -0.64490000
H        0.46350000      -0.36530000       1.06110000
H       -4.04210000       0.01570000       0.58710000
H       -3.67230000      -1.26770000       1.77070000
H       -3.75320000       0.43300000       2.29630000
H       -3.73720000      -1.80310000      -1.63080000
H       -2.20890000      -1.99470000      -2.50610000
H       -2.39860000      -3.90980000      -0.61780000
H       -1.07260000      -2.71280000       1.33490000
