15
Properties=species:S:1:pos:R:3 gdb_29014=T pbc="F F F"
N       -0.07610000       1.37830000      -0.09380000
C        0.01900000       0.01070000      -0.04270000
N       -1.15930000      -0.63490000      -0.05090000
C       -1.14890000      -1.96390000      -0.03060000
C        0.00870000      -2.74310000       0.01160000
C        1.22140000      -2.07740000       0.01410000
C        1.25900000      -0.67970000      -0.02370000
C        2.56430000      -0.00330000      -0.06430000
O        3.63350000      -0.57170000      -0.00400000
H        0.67380000       1.94400000       0.26400000
H       -1.00710000       1.72990000       0.06970000
H       -2.12740000      -2.43990000      -0.04370000
H       -0.05200000      -3.82400000       0.03670000
H        2.16930000      -2.60440000       0.03610000
H        2.53490000       1.10350000      -0.17210000
