15
Properties=species:S:1:pos:R:3 gdb_54091=T pbc="F F F"
N        1.06230000      -0.98960000       0.07880000
C        0.05400000      -0.08890000      -0.10870000
O        0.22550000       1.09350000      -0.31490000
N       -1.25350000      -0.65480000      -0.09140000
C       -1.49950000      -2.09760000      -0.08550000
C       -1.34840000      -2.64720000       1.32920000
O       -0.30010000      -3.06770000       1.75800000
C       -2.35390000       0.19470000      -0.16540000
O       -3.49530000      -0.20290000      -0.17110000
H        1.97230000      -0.56440000       0.16180000
H        0.91250000      -1.85300000       0.58610000
H       -2.52390000      -2.23740000      -0.43760000
H       -0.79290000      -2.59930000      -0.75040000
H       -2.25190000      -2.60100000       1.96910000
H       -2.05050000       1.24720000      -0.21710000
