20
Properties=species:S:1:pos:R:3 gdb_61459=T pbc="F F F"
C       -0.12490000       1.51280000      -0.12900000
C        0.02300000       0.00150000       0.03010000
O       -1.28740000      -0.61130000       0.10130000
C       -1.89150000      -0.64680000       1.31260000
C       -3.24070000      -1.31620000       1.21060000
O       -1.40370000      -0.20270000       2.31980000
C        0.75510000      -0.63630000      -1.13420000
C        0.55880000      -2.05460000      -1.50750000
N        0.05550000      -0.97410000      -2.38160000
H        0.86280000       1.97750000      -0.20620000
H       -0.68810000       1.75340000      -1.03550000
H       -0.63610000       1.93750000       0.73750000
H        0.54720000      -0.21830000       0.96510000
H       -3.86660000      -0.79190000       0.48310000
H       -3.12390000      -2.34490000       0.85760000
H       -3.72120000      -1.31250000       2.18800000
H        1.73730000      -0.19400000      -1.29220000
H        1.38620000      -2.62790000      -1.91550000
H       -0.16500000      -2.63060000      -0.93940000
H       -0.94610000      -0.87970000      -2.22550000
