23
Properties=species:S:1:pos:R:3 gdb_122179=T pbc="F F F"
C        0.03870000       1.39410000      -0.22940000
O        0.01600000       0.02400000       0.08630000
C       -1.25490000      -0.56000000      -0.09290000
C       -1.17150000      -2.03110000       0.30230000
C       -2.48850000      -2.76120000       0.13110000
O       -3.51730000      -2.28950000       0.97420000
C       -2.91420000      -3.29140000      -1.22200000
C       -2.55740000      -4.24520000      -0.09460000
C       -1.34700000      -5.14840000      -0.17050000
H        1.05610000       1.75420000      -0.05770000
H       -0.22950000       1.57720000      -1.28260000
H       -0.65390000       1.97200000       0.40360000
H       -2.00250000      -0.03650000       0.52880000
H       -1.57950000      -0.46280000      -1.14420000
H       -0.39120000      -2.50220000      -0.30230000
H       -0.85500000      -2.09540000       1.34970000
H       -3.84830000      -1.46210000       0.60920000
H       -3.95930000      -3.19300000      -1.49470000
H       -2.21640000      -3.20330000      -2.04980000
H       -3.41890000      -4.68940000       0.39630000
H       -0.52290000      -4.68740000      -0.72270000
H       -0.97630000      -5.40670000       0.82770000
H       -1.59850000      -6.08270000      -0.68400000
