16
Properties=species:S:1:pos:R:3 gdb_16396=T pbc="F F F"
O        0.00140000      -0.02850000      -0.04810000
C       -0.01240000       1.18330000       0.00060000
C       -1.25740000       1.99320000       0.05470000
C       -1.12320000       3.32630000       0.10700000
C        0.26690000       3.91800000       0.10840000
C        1.09920000       3.20740000      -1.00600000
C        1.25720000       2.03500000       0.01500000
C        1.13410000       3.11970000       1.13310000
H       -2.20950000       1.47490000       0.04940000
H       -1.98320000       3.98820000       0.14830000
H        0.26300000       5.00760000       0.15310000
H        0.60150000       3.00450000      -1.95680000
H        2.05560000       3.70640000      -1.18430000
H        2.13890000       1.39550000      -0.02560000
H        2.09640000       3.60380000       1.32050000
H        0.66740000       2.83900000       2.07990000
