16
Properties=species:S:1:pos:R:3 gdb_29583=T pbc="F F F"
N       -0.10080000       1.47650000      -0.04110000
C       -0.04360000       0.07340000      -0.03360000
C       -1.07170000      -0.82160000      -0.04400000
O       -0.59300000      -2.09870000       0.07330000
C        0.75250000      -2.00930000       0.14910000
C        1.16040000      -0.71110000       0.09770000
C        2.55100000      -0.22030000       0.16750000
C        3.38430000      -0.37170000       1.37570000
O        3.57220000      -1.21760000       0.24090000
H        0.61450000       1.89470000      -0.62360000
H       -1.00390000       1.82550000      -0.33630000
H       -2.14150000      -0.71900000      -0.11130000
H        1.29830000      -2.93450000       0.22110000
H        2.79780000       0.61290000      -0.49450000
H        4.19120000       0.33370000       1.57090000
H        2.95170000      -0.85290000       2.25070000
