17
Properties=species:S:1:pos:R:3 gdb_88039=T pbc="F F F"
C       -0.03540000       1.54910000      -0.12970000
C        0.01450000       0.05160000       0.00110000
O        1.32330000      -0.57030000      -0.06940000
C        0.62590000      -0.62470000       1.14260000
C        1.11900000      -0.10670000       2.49440000
N        0.36930000      -1.21870000       3.14130000
C        0.21680000      -1.93690000       1.85130000
C       -1.11490000      -2.47990000       1.58690000
N       -2.16450000      -2.89980000       1.34640000
H        0.75110000       2.02310000       0.46310000
H        0.09630000       1.84630000      -1.17470000
H       -1.00670000       1.92530000       0.20790000
H       -0.75030000      -0.50120000      -0.54540000
H        2.21170000      -0.17240000       2.57770000
H        0.79200000       0.88980000       2.80630000
H        0.88050000      -1.73610000       3.84660000
H        0.96420000      -2.71990000       1.66250000
