27
Properties=species:S:1:pos:R:3 gdb_76614=T pbc="F F F"
C       -0.66620000       1.85430000       0.44100000
C       -0.38450000       0.36640000       0.50720000
C        0.71790000      -0.30110000      -0.30070000
C        1.62770000       0.46520000      -1.24020000
C        0.78460000      -0.29520000       1.21740000
C        1.83900000       0.29300000       2.16990000
C        2.41370000       1.67640000       1.81270000
C        1.18980000       0.39030000       3.56780000
C        3.01060000      -0.71110000       2.23260000
H        0.21580000       2.45310000       0.21050000
H       -1.40880000       2.05980000      -0.33870000
H       -1.07750000       2.22470000       1.38710000
H       -1.30680000      -0.20760000       0.57310000
H        0.45010000      -1.27150000      -0.71440000
H        1.78750000       1.50160000      -0.94020000
H        2.61210000      -0.01040000      -1.31810000
H        1.19500000       0.48360000      -2.24720000
H        0.49120000      -1.26550000       1.61860000
H        1.64570000       2.45260000       1.79380000
H        3.14720000       1.96700000       2.57340000
H        2.93150000       1.67510000       0.85120000
H        0.80120000      -0.58080000       3.89330000
H        1.91800000       0.72620000       4.31460000
H        0.35600000       1.09990000       3.56640000
H        3.50290000      -0.80340000       1.25900000
H        3.76250000      -0.38980000       2.96210000
H        2.66390000      -1.70760000       2.52710000
