17
Properties=species:S:1:pos:R:3 gdb_97317=T pbc="F F F"
C       -0.56180000       1.66130000       0.52060000
N       -0.61530000       0.24830000       0.83540000
C       -0.09890000      -0.55430000       0.00420000
N       -0.09190000      -1.91890000       0.26130000
C        0.25940000      -2.88330000      -0.67000000
N        0.57200000      -2.59440000      -1.86830000
C        0.28950000      -4.32370000      -0.16120000
N        0.38190000      -4.47470000       1.19730000
O        0.22850000      -5.25210000      -0.93810000
H       -0.06320000       1.88620000      -0.43510000
H       -1.57920000       2.06770000       0.48450000
H       -0.03630000       2.19680000       1.32000000
H        0.38100000      -0.28990000      -0.94190000
H       -0.61060000      -2.20160000       1.08000000
H        0.80770000      -3.46150000      -2.35380000
H        0.77810000      -3.73470000       1.75480000
H        0.53310000      -5.41750000       1.52500000
