18
Properties=species:S:1:pos:R:3 gdb_16076=T pbc="F F F"
C       -0.35560000       1.29120000      -0.01870000
O        0.38850000       0.09480000       0.15940000
C        0.79820000      -0.48080000      -1.01940000
C        0.01930000      -1.56110000      -1.77520000
O        1.25510000      -2.26140000      -2.08710000
C        2.00670000      -1.33400000      -1.29470000
C        1.93320000       0.05960000      -1.87640000
C        1.87220000       0.34320000      -3.36030000
H        0.22980000       2.05070000      -0.55410000
H       -1.28790000       1.11210000      -0.57240000
H       -0.60200000       1.66270000       0.97820000
H       -0.60690000      -2.16280000      -1.10720000
H       -0.54260000      -1.28250000      -2.67380000
H        2.80120000      -1.72460000      -0.66990000
H        2.53300000       0.75220000      -1.28690000
H        1.41250000      -0.49270000      -3.89350000
H        1.29970000       1.25120000      -3.57740000
H        2.87970000       0.47780000      -3.76820000
