16
Properties=species:S:1:pos:R:3 gdb_124928=T pbc="F F F"
C        0.06840000       1.51810000      -0.00810000
C       -0.03930000       0.01890000      -0.03730000
C       -1.18300000      -0.69610000       0.01900000
C       -2.55310000      -0.10500000       0.12580000
C       -1.09480000      -2.15630000      -0.02410000
N       -2.12850000      -2.89470000       0.02100000
O        0.16440000      -2.69140000      -0.11690000
N        1.35480000      -1.84930000      -0.16500000
N        1.20660000      -0.63420000      -0.12640000
H        1.10020000       1.81190000      -0.20580000
H       -0.57750000       1.98320000      -0.75820000
H       -0.21950000       1.92090000       0.96920000
H       -3.16850000      -0.43290000      -0.71810000
H       -3.05280000      -0.48550000       1.02220000
H       -2.53180000       0.98430000       0.15920000
H       -1.86950000      -3.88130000      -0.02090000
