18
Properties=species:S:1:pos:R:3 gdb_73649=T pbc="F F F"
C       -0.12810000       1.47860000       0.04080000
C        0.01190000      -0.02510000       0.01690000
O       -1.26250000      -0.63010000      -0.05050000
C       -1.14490000      -1.96660000       0.43730000
C       -0.11790000      -1.88850000       1.58360000
C        0.82710000      -0.80390000       1.09430000
O        1.74970000      -1.27770000       0.05610000
C        1.06180000      -0.61070000      -0.94050000
N        1.27210000      -0.53750000      -2.17270000
H        0.84890000       1.95870000       0.14050000
H       -0.58250000       1.81910000      -0.89320000
H       -0.76690000       1.78560000       0.87370000
H       -2.13780000      -2.29390000       0.75200000
H       -0.79070000      -2.63740000      -0.35780000
H       -0.59860000      -1.55590000       2.50940000
H        0.39300000      -2.83480000       1.77510000
H        1.36770000      -0.25190000       1.86360000
H        2.09230000      -1.08120000      -2.44880000
