15
Properties=species:S:1:pos:R:3 gdb_105586=T pbc="F F F"
O       -0.04530000       1.46380000       0.13940000
C        0.01360000       0.08310000      -0.07740000
C       -1.40610000      -0.53590000      -0.07510000
C       -1.52430000      -2.06880000       0.16210000
O       -2.08510000      -1.82310000       1.49150000
C       -2.00840000      -0.46650000       1.32710000
N       -2.23750000       0.49890000       2.09040000
C       -2.23480000      -0.01080000      -1.14990000
N       -2.89070000       0.36680000      -2.02270000
H       -0.55260000       1.61660000       0.95070000
H        0.48990000      -0.07620000      -1.04940000
H        0.60780000      -0.44400000       0.68680000
H       -2.23410000      -2.59470000      -0.47640000
H       -0.57720000      -2.60770000       0.23240000
H       -2.56880000       0.21060000       3.01150000
