18
Properties=species:S:1:pos:R:3 gdb_95905=T pbc="F F F"
C       -0.08780000       1.50060000      -0.08970000
C        0.00050000      -0.01810000       0.05160000
O        0.61810000      -0.56000000      -1.11250000
C        1.49270000      -1.64370000      -0.76590000
C        1.27950000      -1.90720000       0.73040000
C        0.85750000      -0.52440000       1.24380000
O        1.95570000       0.35910000       1.37900000
C       -1.36530000      -0.59250000       0.18490000
N       -2.42180000      -1.04910000       0.28990000
H        0.92030000       1.90910000      -0.14940000
H       -0.63930000       1.74970000      -0.99870000
H       -0.60530000       1.93870000       0.76770000
H        1.25060000      -2.50950000      -1.38940000
H        2.52370000      -1.33640000      -0.97590000
H        0.47130000      -2.62630000       0.89410000
H        2.17590000      -2.28160000       1.23170000
H        0.26490000      -0.57060000       2.16580000
H        2.52540000       0.02130000       2.07670000
