20
Properties=species:S:1:pos:R:3 gdb_82524=T pbc="F F F"
C       -0.06450000       1.52010000      -0.02920000
C        0.04120000       0.02170000       0.00240000
C       -0.82380000      -0.86410000       0.86460000
O       -1.51610000      -1.98100000       0.38300000
C        0.65400000      -0.94250000       1.05680000
C        1.29400000      -1.78600000      -0.05860000
C        0.66910000      -0.83410000      -1.09020000
C        0.17460000      -1.06980000      -2.46250000
N        1.43220000      -0.32140000      -2.22360000
H        0.89890000       1.98840000      -0.26290000
H       -0.79140000       1.86070000      -0.77830000
H       -0.39150000       1.91030000       0.93960000
H       -1.34740000      -0.32170000       1.65470000
H       -2.19460000      -1.67390000      -0.22680000
H        1.11990000      -0.70700000       2.00650000
H        2.38350000      -1.71510000      -0.07350000
H        0.98610000      -2.83320000      -0.09880000
H        0.30660000      -2.04030000      -2.93310000
H       -0.70100000      -0.51910000      -2.80080000
H        1.26750000       0.67650000      -2.33970000
