21
Properties=species:S:1:pos:R:3 gdb_41795=T pbc="F F F"
C       -0.01970000       1.54870000      -0.31830000
O        1.33210000       1.99190000      -0.24230000
C        2.20740000       0.89110000       0.01690000
C        1.40890000      -0.36360000      -0.35990000
C       -0.03200000       0.03960000      -0.00070000
C       -0.41380000      -0.27970000       1.45070000
C        0.45420000       0.24270000       2.56730000
C        1.69980000       0.72220000       2.57280000
C        2.69940000       0.92790000       1.46520000
H       -0.63050000       2.12370000       0.38900000
H       -0.40120000       1.74350000      -1.33060000
H        3.08130000       1.01730000      -0.63400000
H        1.49550000      -0.55100000      -1.43470000
H        1.74770000      -1.25900000       0.16810000
H       -0.75210000      -0.47180000      -0.64690000
H       -1.43860000       0.07790000       1.62370000
H       -0.48000000      -1.37370000       1.56070000
H       -0.03370000       0.17740000       3.53950000
H        2.09510000       1.00140000       3.54910000
H        3.50290000       0.18240000       1.57650000
H        3.18630000       1.89960000       1.62000000
