18
Properties=species:S:1:pos:R:3 gdb_73857=T pbc="F F F"
C        0.12670000       1.57380000       0.19150000
C       -0.01150000       0.08660000       0.06040000
C       -1.14440000      -0.60960000      -0.08990000
C       -2.54890000      -0.09180000      -0.17150000
N       -1.04750000      -2.01360000      -0.18530000
C        0.00690000      -2.75220000       0.32110000
O       -0.04830000      -3.93930000       0.51240000
O        1.10980000      -2.03450000       0.62210000
C        1.26230000      -0.71760000       0.06110000
H        0.78900000       1.97990000      -0.58500000
H       -0.82820000       2.09590000       0.10960000
H        0.57390000       1.84770000       1.15620000
H       -3.02800000      -0.42820000      -1.09950000
H       -3.15480000      -0.46860000       0.66160000
H       -2.58550000       0.99670000      -0.15320000
H       -1.89290000      -2.55300000      -0.28610000
H        1.66880000      -0.82220000      -0.95780000
H        2.03340000      -0.24050000       0.67270000
