11
Properties=species:S:1:pos:R:3 gdb_48190=T pbc="F F F"
O       -0.10500000       0.02410000      -0.06480000
C       -0.01890000       1.20590000       0.00850000
C        1.37420000       1.97940000       0.01600000
C        1.37740000       2.81660000      -1.18530000
C        1.30250000       3.47390000      -2.18570000
C        1.39280000       2.80570000       1.23770000
N        1.33830000       3.44110000       2.20000000
C        2.48980000       1.02020000       0.01910000
N        3.36090000       0.26450000       0.01410000
H       -0.87150000       1.90760000       0.05460000
H        1.26420000       4.06500000      -3.06910000
