21
Properties=species:S:1:pos:R:3 gdb_95619=T pbc="F F F"
C       -0.05830000       1.55350000      -0.00030000
C        0.09920000       0.03420000       0.01390000
C        0.79380000      -0.51370000      -1.25000000
O        2.07460000       0.11090000      -1.30790000
C        0.92390000      -2.04300000      -1.20570000
C        1.71510000      -2.49610000       0.02640000
C        1.07140000      -1.96960000       1.32220000
C        0.82170000      -0.46700000       1.27080000
O        1.14020000       0.27200000       2.17210000
H        0.91890000       2.03670000      -0.04820000
H       -0.64540000       1.86990000      -0.86860000
H       -0.56050000       1.89780000       0.90600000
H       -0.89480000      -0.43870000       0.03510000
H        0.19360000      -0.22090000      -2.12600000
H        2.51070000      -0.16950000      -2.11870000
H       -0.08110000      -2.48570000      -1.20140000
H        1.41200000      -2.39380000      -2.12410000
H        1.78430000      -3.58800000       0.05970000
H        2.73700000      -2.11020000      -0.04710000
H        0.09630000      -2.45860000       1.46370000
H        1.68040000      -2.18690000       2.20280000
