20
Properties=species:S:1:pos:R:3 gdb_22407=T pbc="F F F"
C       -0.24920000       1.36490000       0.35490000
O       -0.10330000      -0.02650000       0.20300000
C       -1.31360000      -0.67780000      -0.11320000
C       -1.04440000      -2.16310000      -0.23120000
C       -0.67750000      -2.90500000       1.09850000
C       -1.84690000      -3.83100000       0.83690000
C       -2.30680000      -3.07190000      -0.39210000
N       -2.21220000      -4.88040000       1.44300000
O       -3.34900000      -5.44350000       0.82800000
H        0.73480000       1.77350000       0.59740000
H       -0.61400000       1.84130000      -0.56910000
H       -0.94900000       1.61720000       1.16770000
H       -2.06860000      -0.49050000       0.67250000
H       -1.73020000      -0.28730000      -1.05870000
H       -0.30220000      -2.33350000      -1.01440000
H        0.30660000      -3.37860000       1.13350000
H       -0.78820000      -2.28230000       1.99230000
H       -3.26260000      -2.55310000      -0.25490000
H       -2.37400000      -3.66490000      -1.30790000
H       -3.50660000      -6.22210000       1.37230000
