16
Properties=species:S:1:pos:R:3 gdb_23409=T pbc="F F F"
O       -0.10970000       1.30340000      -0.18660000
N       -0.00980000      -0.09140000      -0.09820000
C       -1.15540000      -0.63590000       0.06200000
C       -2.48840000      -0.04820000       0.21200000
C       -3.39470000      -1.00130000       0.48150000
C       -2.79190000      -2.37810000       0.51520000
C       -2.84430000      -3.16510000      -0.81970000
O       -1.50280000      -2.76200000      -1.15480000
C       -1.30500000      -2.13740000       0.14160000
H        0.80900000       1.56650000      -0.30670000
H       -2.67710000       1.01230000       0.12480000
H       -4.45310000      -0.82470000       0.63970000
H       -3.02850000      -2.94720000       1.41640000
H       -2.92350000      -4.25320000      -0.69840000
H       -3.57820000      -2.82640000      -1.55970000
H       -0.51280000      -2.63100000       0.71020000
