14
Properties=species:S:1:pos:R:3 gdb_128904=T pbc="F F F"
N        0.00910000      -1.18390000      -0.10010000
C       -0.01080000      -0.02910000      -0.12570000
C       -0.00910000       1.43090000      -0.14750000
C        1.38830000       2.00730000       0.19140000
C        1.39250000       3.49690000       0.17510000
C        1.70150000       4.44210000       1.10420000
N        1.51510000       5.66710000       0.50870000
N        1.12460000       5.53710000      -0.67460000
O        1.02770000       4.12010000      -0.94540000
H       -0.32280000       1.77600000      -1.13750000
H       -0.75170000       1.79730000       0.56930000
H        1.70640000       1.66120000       1.17770000
H        2.11570000       1.62970000      -0.53510000
H        2.03600000       4.34300000       2.12250000
