18
Properties=species:S:1:pos:R:3 gdb_88302=T pbc="F F F"
C        0.74300000       1.33360000       0.60230000
C        0.53590000       0.14810000      -0.30990000
C        1.69480000      -0.46210000      -1.05750000
N        1.05890000      -1.15140000       0.04720000
C        1.58430000      -1.53310000       1.26470000
O        1.04810000      -1.29520000       2.32260000
C        2.86640000      -2.38350000       1.16360000
C        4.05380000      -1.54060000       1.08690000
C        5.01760000      -0.82420000       1.02770000
H        1.76710000       1.36320000       0.98490000
H        0.54950000       2.26260000       0.05660000
H        0.06760000       1.28480000       1.46030000
H       -0.43770000       0.10360000      -0.79600000
H        1.54130000      -0.89920000      -2.04110000
H        2.68090000      -0.03850000      -0.88680000
H        2.90410000      -3.01090000       2.05880000
H        2.80950000      -3.03710000       0.28620000
H        5.88040000      -0.20650000       0.98630000
