17
Properties=species:S:1:pos:R:3 gdb_112394=T pbc="F F F"
O       -0.06180000       1.48690000      -0.18470000
C        0.04700000       0.08630000      -0.12560000
C       -1.32360000      -0.58970000       0.05090000
C       -1.32410000      -2.12930000       0.07960000
C       -2.21430000      -2.51470000       1.25080000
N       -2.61090000      -3.69090000       1.49960000
N       -2.46270000      -1.33390000       1.96210000
C       -1.94560000      -0.19180000       1.38720000
O       -1.97860000       0.91680000       1.88020000
H       -0.58110000       1.75540000       0.58760000
H        0.49730000      -0.24480000      -1.06770000
H        0.71620000      -0.24480000       0.68820000
H       -1.98440000      -0.20450000      -0.73440000
H       -1.68370000      -2.59180000      -0.84010000
H       -0.31840000      -2.52280000       0.26770000
H       -3.18960000      -3.73490000       2.34020000
H       -2.95580000      -1.30180000       2.84310000
