20
Properties=species:S:1:pos:R:3 gdb_124570=T pbc="F F F"
C        0.02860000       1.53700000      -0.03780000
C        0.05590000       0.00980000       0.09620000
C        0.69110000      -0.41560000       1.42540000
C       -1.36970000      -0.56790000      -0.07360000
C       -1.42230000      -2.06250000      -0.14510000
N       -1.01240000      -2.73560000      -1.22720000
N       -1.20610000      -4.00490000      -0.89350000
N       -1.71110000      -4.23560000       0.30870000
C       -1.85620000      -3.00630000       0.80610000
H        1.03550000       1.95800000       0.04880000
H       -0.38390000       1.84740000      -1.00360000
H       -0.58750000       1.98910000       0.74910000
H        0.66490000      -0.39750000      -0.72130000
H        0.72860000      -1.50430000       1.52530000
H        1.71450000      -0.03560000       1.50930000
H        0.12090000      -0.02030000       2.27540000
H       -1.99820000      -0.22870000       0.75920000
H       -1.80930000      -0.15580000      -0.98880000
H       -0.99130000      -4.75620000      -1.52880000
H       -2.25710000      -2.85270000       1.79560000
