17
Properties=species:S:1:pos:R:3 gdb_67865=T pbc="F F F"
C        0.10750000       1.56750000      -0.00060000
C       -0.00510000       0.05500000       0.08280000
N       -1.40090000      -0.39690000       0.03750000
C       -1.55760000      -1.22160000       1.00460000
N       -0.45110000      -1.55770000       1.76300000
C        0.66880000      -0.76240000       1.26970000
C        1.59140000      -1.51210000       0.26920000
C        0.92110000      -0.73910000      -0.88630000
O        1.07870000      -0.72070000      -2.06940000
H        1.15030000       1.89450000       0.06750000
H       -0.30020000       1.91160000      -0.95480000
H       -0.46130000       2.03810000       0.80720000
H       -2.51110000      -1.69100000       1.23120000
H       -0.55480000      -1.74900000       2.74750000
H        1.17400000      -0.21080000       2.06430000
H        2.65890000      -1.28760000       0.36120000
H        1.45820000      -2.59720000       0.23980000
