18
Properties=species:S:1:pos:R:3 gdb_75174=T pbc="F F F"
C        0.09460000       1.38580000       0.21170000
C       -0.04760000      -0.08050000      -0.01050000
N        0.20430000      -0.71210000      -1.08390000
C       -0.10420000      -2.12200000      -0.81870000
C       -0.50740000      -2.17300000       0.68060000
C        0.47960000      -2.95810000       1.55720000
C        0.12140000      -2.98030000       2.96900000
C       -0.19250000      -3.00360000       4.12850000
O       -0.50230000      -0.78110000       1.06930000
H        0.78880000       1.57890000       1.03550000
H        0.46030000       1.86100000      -0.69770000
H       -0.87010000       1.82000000       0.49230000
H       -0.91080000      -2.45950000      -1.47860000
H        0.77000000      -2.74900000      -1.03170000
H       -1.52080000      -2.55140000       0.83900000
H        0.52980000      -3.98470000       1.17060000
H        1.48000000      -2.52650000       1.42490000
H       -0.46310000      -3.01930000       5.15500000
