18
Properties=species:S:1:pos:R:3 gdb_28293=T pbc="F F F"
C       -0.01680000       1.50930000       0.01210000
C        0.00260000       0.01010000       0.00850000
C       -0.03040000      -0.80130000      -1.10790000
N        0.00530000      -2.10250000      -0.66960000
C        0.00250000      -3.40000000      -1.19990000
C        0.05370000      -4.29960000      -0.20950000
C        0.09650000      -3.58330000       1.13280000
C        0.05990000      -2.13940000       0.70990000
C        0.05940000      -0.84370000       1.16210000
H        0.88330000       1.92760000       0.47850000
H       -0.07360000       1.90510000      -1.00630000
H       -0.87570000       1.90420000       0.56780000
H       -0.07540000      -0.55540000      -2.15680000
H       -0.03740000      -3.54700000      -2.26930000
H        0.06380000      -5.37210000      -0.33030000
H       -0.75390000      -3.86240000       1.76890000
H        1.00140000      -3.83810000       1.70010000
H        0.09500000      -0.51830000       2.19120000
