20
Properties=species:S:1:pos:R:3 gdb_108531=T pbc="F F F"
C        0.06150000       1.52760000      -0.11850000
C       -0.07860000       0.01490000       0.09890000
C        0.67530000      -0.50430000       1.30320000
C        0.31870000      -0.01610000       2.70560000
O        1.24240000      -0.75360000       3.52950000
C        1.94660000      -1.50740000       2.57410000
C        1.00450000      -2.03310000       1.45310000
N        2.08000000      -1.88960000       0.40680000
C        2.23850000      -0.67760000       1.28880000
H        1.11220000       1.81450000      -0.23200000
H       -0.46650000       1.83870000      -1.02490000
H       -0.35220000       2.10260000       0.71660000
H       -1.14100000      -0.24270000       0.20580000
H        0.29040000      -0.52240000      -0.78030000
H        0.47670000       1.05950000       2.84690000
H       -0.71330000      -0.25820000       2.99050000
H        2.70540000      -2.14200000       3.03280000
H        0.30540000      -2.87130000       1.46820000
H        2.83550000      -2.55410000       0.60220000
H        3.00160000       0.08250000       1.11270000
