18
Properties=species:S:1:pos:R:3 gdb_98429=T pbc="F F F"
C       -0.00560000       1.32460000       0.01160000
O        0.04320000      -0.10920000       0.04560000
C        0.73680000      -0.63870000       1.06730000
O        1.29510000       0.04370000       1.90910000
C        0.71570000      -2.12560000       1.06450000
N       -0.01790000      -2.85820000       0.07110000
C        1.99820000      -2.79000000       1.59080000
C        0.79900000      -2.76370000       2.47140000
O        0.73020000      -2.01520000       3.62800000
H        1.00130000       1.74140000      -0.06610000
H       -0.59480000       1.57860000      -0.86930000
H       -0.47890000       1.71420000       0.91600000
H       -0.99040000      -2.56540000       0.06260000
H        0.34720000      -2.66020000      -0.85670000
H        2.26800000      -3.71770000       1.10010000
H        2.81490000      -2.12160000       1.83970000
H        0.22150000      -3.67790000       2.55380000
H        1.10590000      -1.14190000       3.42710000
