23
Properties=species:S:1:pos:R:3 gdb_115874=T pbc="F F F"
C       -0.00930000       1.54410000       0.10150000
C       -0.03880000       0.01960000      -0.04730000
C        0.71290000      -0.49650000      -1.28090000
C        2.23150000      -0.17470000      -1.28280000
C        2.90480000      -1.29530000      -2.10800000
C        1.97840000      -2.47770000      -1.92110000
O        1.58200000      -2.68880000      -0.55510000
C        0.66660000      -2.01680000      -1.44730000
C       -0.63170000      -2.72760000      -1.71700000
H        1.01280000       1.91830000       0.21830000
H       -0.44350000       2.03580000      -0.77670000
H       -0.58080000       1.86540000       0.97780000
H        0.39310000      -0.45230000       0.84400000
H       -1.08380000      -0.31210000      -0.09570000
H        0.24870000      -0.06310000      -2.18030000
H        2.44790000       0.82030000      -1.67860000
H        2.60310000      -0.20630000      -0.25480000
H        2.94330000      -1.04270000      -3.17530000
H        3.93010000      -1.49950000      -1.78370000
H        2.09950000      -3.38350000      -2.51190000
H       -1.32490000      -2.61480000      -0.87660000
H       -1.11950000      -2.32040000      -2.60940000
H       -0.46020000      -3.79620000      -1.86900000
