16
Properties=species:S:1:pos:R:3 gdb_125504=T pbc="F F F"
C        0.00730000       1.49210000      -0.10730000
C        0.01370000       0.00410000      -0.00320000
N        0.00070000      -0.78450000      -1.06070000
N        0.01230000      -2.02840000      -0.53810000
C        0.00320000      -3.15080000      -1.38820000
O        0.01250000      -4.28490000      -1.01050000
N        0.03260000      -2.08400000       0.80420000
C        0.03360000      -0.81570000       1.17200000
C        0.05320000      -0.39790000       2.60380000
H        0.89500000       1.92570000       0.36640000
H       -0.01060000       1.79690000      -1.15490000
H       -0.86740000       1.92020000       0.39480000
H       -0.01340000      -2.81010000      -2.43580000
H        0.93630000       0.21130000       2.82630000
H       -0.82630000       0.20660000       2.85190000
H        0.06500000      -1.27660000       3.25040000
