15
Properties=species:S:1:pos:R:3 gdb_88150=T pbc="F F F"
O       -0.05860000       1.37470000      -0.08000000
C        0.02630000      -0.00610000       0.01630000
C       -0.37350000      -0.71970000       1.28380000
C       -1.28270000      -0.77860000       0.08990000
O       -2.47310000      -0.02660000       0.09280000
C       -3.22300000      -0.50320000      -1.01470000
O       -2.76560000      -1.81750000      -1.30390000
C       -1.54550000      -2.00180000      -0.70990000
O       -0.87260000      -2.97790000      -0.85620000
H       -0.99310000       1.61140000      -0.00500000
H        0.83410000      -0.42000000      -0.57870000
H        0.13470000      -1.64200000       1.54520000
H       -0.71370000      -0.10570000       2.11080000
H       -4.27950000      -0.53840000      -0.73860000
H       -3.07090000       0.13000000      -1.90020000
