19
Properties=species:S:1:pos:R:3 gdb_37456=T pbc="F F F"
C       -0.00620000       1.48780000       0.11110000
C        1.31260000       0.75320000       0.07620000
C        0.01600000      -0.01990000       0.06020000
C       -0.07350000      -0.67970000      -1.33650000
O       -0.77760000       0.15470000      -2.26850000
C        0.14090000       0.96680000      -2.99840000
C        1.53490000       0.49810000      -2.63080000
C        2.06210000       0.39780000      -1.19900000
C        1.38030000      -0.77900000      -1.85900000
H       -0.27500000       1.94260000       1.05980000
H       -0.36650000       2.03120000      -0.75010000
H        1.92590000       0.78940000       0.97060000
H       -0.32640000      -0.58870000       0.91760000
H       -0.59530000      -1.63850000      -1.29950000
H       -0.02530000       0.80930000      -4.07340000
H       -0.04060000       2.02920000      -2.79000000
H        2.29620000       0.58500000      -3.39920000
H        3.14470000       0.42710000      -1.13240000
H        1.83980000      -1.72530000      -2.11650000
