19
Properties=species:S:1:pos:R:3 gdb_106432=T pbc="F F F"
C       -0.11230000       1.51280000       0.06300000
C        0.04670000      -0.01130000       0.05070000
C        0.85560000      -0.52230000       1.20400000
C        2.29390000      -0.17890000       1.68370000
C        1.59610000      -1.03850000       2.75790000
O        0.37710000      -0.22850000       2.58540000
C        1.09800000      -2.01160000       1.64750000
C       -0.05140000      -2.84730000       1.90760000
C       -0.99350000      -3.57110000       2.09250000
H        0.85490000       2.01460000      -0.04260000
H       -0.75280000       1.84210000      -0.76000000
H       -0.56130000       1.84370000       1.00310000
H       -0.93470000      -0.49870000       0.08970000
H        0.52810000      -0.34310000      -0.87780000
H        3.14010000      -0.60420000       1.13750000
H        2.44450000       0.86240000       1.96690000
H        1.90360000      -1.27590000       3.77570000
H        1.88120000      -2.54290000       1.09770000
H       -1.83070000      -4.19960000       2.27040000
