18
Properties=species:S:1:pos:R:3 gdb_46769=T pbc="F F F"
O       -0.14050000       0.25200000       0.84070000
C       -0.09690000       1.35990000       0.34880000
N       -1.17000000       2.15460000       0.06470000
C       -0.86840000       3.44610000      -0.51870000
C        0.66630000       3.57400000      -0.31700000
C        1.08520000       4.29260000       0.94670000
C        1.89290000       3.55730000       1.70920000
C        2.18190000       2.20350000       1.10750000
C        1.16980000       2.12870000      -0.05870000
H       -2.10610000       1.82170000       0.23180000
H       -1.13620000       3.48090000      -1.58360000
H       -1.41380000       4.25100000      -0.01240000
H        1.11470000       4.04340000      -1.19960000
H        0.76320000       5.30560000       1.16470000
H        2.33100000       3.88300000       2.64640000
H        3.21940000       2.14340000       0.75400000
H        2.03670000       1.37090000       1.80420000
H        1.58730000       1.64010000      -0.94310000
