15
Properties=species:S:1:pos:R:3 gdb_21157=T pbc="F F F"
C       -0.03080000       1.48170000       0.13790000
N       -0.10520000       0.02730000       0.04340000
C        0.59380000      -0.71330000       0.98740000
C        0.73360000      -2.06800000       1.12080000
C        0.24680000      -3.22720000       0.33210000
O        1.47420000      -2.28430000       2.22080000
N        1.76990000      -1.02950000       2.78450000
N        1.25650000      -0.13770000       2.04490000
H        0.99030000       1.87790000       0.04580000
H       -0.65290000       1.91060000      -0.65100000
H       -0.42560000       1.80410000       1.10410000
H        0.03720000      -0.30930000      -0.89820000
H        1.03810000      -3.66530000      -0.28760000
H       -0.12980000      -4.01430000       0.99200000
H       -0.56720000      -2.91070000      -0.32560000
