16
Properties=species:S:1:pos:R:3 gdb_24052=T pbc="F F F"
C       -0.01500000      -1.21070000      -0.15330000
C       -0.03850000      -0.00930000      -0.12990000
C       -0.02640000       1.44660000      -0.09300000
C        1.39380000       2.01880000       0.15800000
C        1.41970000       3.50360000       0.19230000
C        1.69660000       4.44220000       1.13100000
N        1.54570000       5.71320000       0.58580000
C        1.18800000       5.48670000      -0.63350000
O        1.08610000       4.17650000      -0.95990000
H       -0.01090000      -2.27220000      -0.17830000
H       -0.40980000       1.84760000      -1.03840000
H       -0.70220000       1.80690000       0.69190000
H        1.77460000       1.64420000       1.11190000
H        2.06580000       1.64510000      -0.62300000
H        1.99730000       4.29720000       2.15660000
H        0.96500000       6.19870000      -1.41250000
