19
Properties=species:S:1:pos:R:3 gdb_42415=T pbc="F F F"
O       -0.43110000       0.07120000       1.29050000
C       -0.01430000       1.01320000       0.65080000
C        1.36660000       1.60710000       0.86750000
C        2.40770000       0.92230000      -0.02790000
C        2.41730000       1.18640000      -1.56150000
C        3.96860000       1.18510000      -1.50680000
C        3.87480000       1.43340000       0.02300000
C       -0.81100000       1.61410000      -0.40940000
C       -1.46890000       2.12520000      -1.27890000
H        1.35290000       2.68320000       0.66160000
H        1.62650000       1.44800000       1.91920000
H        2.38260000      -0.15560000       0.16510000
H        1.92230000       0.45910000      -2.20880000
H        2.02360000       2.18080000      -1.79480000
H        4.38070000       0.19720000      -1.73090000
H        4.49850000       1.92630000      -2.10880000
H        3.91340000       2.50200000       0.25930000
H        4.57280000       0.90700000       0.67860000
H       -2.06140000       2.56340000      -2.04500000
