12
Properties=species:S:1:pos:R:3 gdb_5017=T pbc="F F F"
O       -0.07130000       1.28520000       0.17230000
C        0.01190000      -0.04070000       0.03970000
N        1.15230000      -0.61970000      -0.07980000
C        1.15150000      -2.00200000      -0.21310000
C        0.01610000      -2.70960000      -0.21790000
O       -1.20130000      -2.10670000      -0.09180000
C       -1.29300000      -0.73840000       0.04530000
N       -2.40010000      -0.13850000       0.16500000
H        0.84000000       1.61450000       0.15320000
H        2.11390000      -2.48640000      -0.31350000
H       -0.06860000      -3.78260000      -0.31670000
H       -3.17400000      -0.80480000       0.14400000
