18
Properties=species:S:1:pos:R:3 gdb_102339=T pbc="F F F"
C        0.05320000       1.57710000      -0.10820000
N       -0.00500000       0.12940000       0.10650000
C       -1.34960000      -0.47530000       0.03400000
C       -2.15990000      -0.09640000       1.33650000
N       -1.52400000      -0.46080000       2.58120000
C       -2.12500000      -0.09710000      -1.15930000
C       -2.76090000       0.27040000      -2.11070000
C       -1.16230000      -1.94100000       0.04050000
N       -1.02470000      -3.08730000       0.07830000
H        1.10540000       1.87160000      -0.12060000
H       -0.41830000       1.90980000      -1.04380000
H       -0.42410000       2.10440000       0.72250000
H        0.59590000      -0.33450000      -0.56590000
H       -2.31940000       0.98570000       1.30080000
H       -3.14360000      -0.56720000       1.26700000
H       -1.50990000      -1.47110000       2.68770000
H       -0.55370000      -0.15860000       2.56360000
H       -3.32300000       0.57420000      -2.95990000
