10
Properties=species:S:1:pos:R:3 gdb_130761=T pbc="F F F"
O        0.04260000       0.03450000       0.52130000
C        0.03610000       1.14330000       0.07880000
O       -1.17720000       1.73450000      -0.26400000
N       -1.26090000       3.00440000      -0.77750000
C       -0.14050000       3.63770000      -0.93090000
N        1.13980000       3.18740000      -0.63820000
C        1.21160000       1.99970000      -0.15860000
C       -0.24860000       4.96620000      -1.46980000
N       -0.31190000       6.03580000      -1.90160000
H        2.18120000       1.57690000       0.09570000
