20
Properties=species:S:1:pos:R:3 gdb_75479=T pbc="F F F"
C       -0.28000000       1.53710000      -0.31650000
C       -0.06790000       0.06330000      -0.17070000
C        0.20800000      -0.82510000      -1.12790000
C        0.36750000      -2.23310000      -0.61170000
C       -0.10230000      -2.12130000       0.86110000
C       -0.10480000      -0.60420000       1.19600000
N        1.03190000      -0.17430000       2.01270000
C        0.91270000       0.30490000       3.27990000
O       -0.12730000       0.42850000       3.89210000
H        0.41500000       2.10080000       0.31720000
H       -0.14460000       1.86460000      -1.35070000
H       -1.28990000       1.82270000       0.00360000
H        0.31930000      -0.57560000      -2.17870000
H       -0.23050000      -2.95580000      -1.17840000
H        1.40910000      -2.57310000      -0.69920000
H       -1.12190000      -2.50580000       0.95290000
H        0.51930000      -2.68430000       1.56100000
H       -0.98210000      -0.32050000       1.78280000
H        1.95390000      -0.21840000       1.60600000
H        1.89890000       0.57990000       3.70620000
