18
Properties=species:S:1:pos:R:3 gdb_106936=T pbc="F F F"
C       -0.31260000       1.30270000      -0.09940000
O        0.24060000       0.01040000       0.09190000
C        0.80300000      -0.53360000      -1.05040000
C       -0.06810000      -1.10930000      -2.12720000
C        0.79580000      -2.02270000      -1.26110000
C        2.13670000      -2.38900000      -1.84270000
O        2.57170000      -3.49480000      -2.07350000
N        2.79490000      -1.20060000      -2.07600000
C        2.18600000      -0.02540000      -1.47850000
H        0.45530000       2.04330000      -0.36360000
H       -1.08080000       1.29900000      -0.88460000
H       -0.76870000       1.59410000       0.84890000
H       -1.13090000      -1.14440000      -1.91430000
H        0.19320000      -0.97540000      -3.17210000
H        0.31930000      -2.71380000      -0.58000000
H        3.74440000      -1.21450000      -2.41220000
H        2.13270000       0.80690000      -2.19090000
H        2.72970000       0.31670000      -0.58690000
