21
Properties=species:S:1:pos:R:3 gdb_90996=T pbc="F F F"
C       -0.19060000       1.52520000       0.01840000
C        0.03830000       0.01130000      -0.00200000
C        0.90780000      -0.47200000      -1.20940000
C        2.22920000      -0.88820000      -0.55400000
C        2.15220000      -2.13370000       0.39020000
C        3.13570000      -1.41750000       1.34090000
C        2.34770000      -0.18180000       0.84100000
C        0.87060000      -0.50220000       1.18310000
O        0.89140000      -1.95080000       1.05570000
H        0.75490000       2.07850000      -0.00270000
H       -0.77390000       1.84090000      -0.85270000
H       -0.73780000       1.83450000       0.91590000
H       -0.92980000      -0.49860000       0.00950000
H        0.44030000      -1.30490000      -1.74270000
H        1.06230000       0.33300000      -1.93560000
H        3.12290000      -0.85980000      -1.17750000
H        2.25190000      -3.16640000       0.05730000
H        3.08460000      -1.69010000       2.39760000
H        4.16860000      -1.41750000       0.98520000
H        2.69210000       0.84310000       0.97080000
H        0.50940000      -0.22190000       2.17540000
