16
Properties=species:S:1:pos:R:3 gdb_47234=T pbc="F F F"
O        0.03520000      -0.06610000      -0.25690000
C       -0.00230000       1.13350000      -0.04190000
N       -1.17780000       1.80160000       0.14020000
C       -1.40470000       3.24920000       0.20700000
C       -0.85450000       3.98910000      -0.99440000
C        0.42630000       3.94640000      -1.36340000
C        1.49820000       3.21990000      -0.64090000
O        1.39660000       3.09810000       0.78320000
C        1.29600000       1.89970000       0.02120000
H       -1.98120000       1.20800000      -0.00550000
H       -2.48620000       3.38790000       0.26400000
H       -0.97610000       3.64950000       1.12870000
H       -1.55690000       4.55980000      -1.59440000
H        0.74640000       4.47150000      -2.25880000
H        2.51140000       3.42280000      -0.98530000
H        2.14570000       1.22400000       0.09340000
