18
Properties=species:S:1:pos:R:3 gdb_23310=T pbc="F F F"
C        0.13990000       1.58200000       0.03660000
C        0.01060000       0.05790000       0.03120000
C        0.61460000      -0.62410000      -1.23120000
C        1.21160000      -1.92380000      -0.73510000
N        1.45630000      -3.00520000      -1.36090000
O        1.12550000      -2.89800000      -2.71990000
C        1.43980000      -1.81710000       0.72680000
O        2.15160000      -0.60380000       1.06430000
C        0.72860000      -0.61620000       1.19430000
H        1.19520000       1.87250000       0.03140000
H       -0.33990000       2.02120000      -0.84370000
H       -0.32790000       2.01850000       0.92520000
H       -1.05010000      -0.21610000       0.10660000
H       -0.12200000      -0.80240000      -2.01710000
H        1.40470000      -0.00340000      -1.66840000
H        1.32950000      -3.77990000      -3.04960000
H        1.65790000      -2.68930000       1.33290000
H        0.34950000      -0.52280000       2.20980000
