17
Properties=species:S:1:pos:R:3 gdb_49029=T pbc="F F F"
O       -0.26560000       0.32290000      -0.71240000
C        0.05970000       1.08710000       0.16780000
C        1.27680000       1.91510000       0.14680000
C        1.70010000       2.98270000       1.16180000
C        2.14980000       3.91190000      -0.01350000
C        1.72830000       2.83610000      -1.01900000
C        2.43420000       1.53570000      -0.78000000
C        3.78240000       1.44370000      -0.29750000
C        4.91160000       1.36850000       0.11040000
H       -0.57990000       1.23110000       1.06810000
H        0.84930000       3.39030000       1.71310000
H        2.47540000       2.68080000       1.87010000
H        1.54430000       4.81650000      -0.08720000
H        3.20770000       4.18440000      -0.03930000
H        1.18690000       2.99580000      -1.94380000
H        2.12810000       0.75360000      -1.47010000
H        5.91120000       1.29300000       0.46070000
