21
Properties=species:S:1:pos:R:3 gdb_110373=T pbc="F F F"
C       -0.05690000       1.44360000       0.29280000
C       -0.10570000       0.00020000      -0.22080000
C       -1.48480000      -0.62200000      -0.09990000
C       -1.56350000      -2.12240000      -0.02700000
C       -1.84520000      -1.25270000       1.21600000
C       -3.30430000      -1.75580000       1.20770000
O       -4.26510000      -0.97780000       0.44590000
C       -4.12530000      -1.85620000      -0.70310000
C       -3.01350000      -2.66200000      -0.00120000
H        0.94600000       1.86830000       0.18500000
H       -0.75190000       2.08250000      -0.26260000
H       -0.33490000       1.49580000       1.35030000
H        0.20850000      -0.02600000      -1.27220000
H        0.62050000      -0.61260000       0.32900000
H       -2.26590000      -0.07220000      -0.61830000
H       -0.69350000      -2.73380000      -0.23730000
H       -1.24270000      -1.10560000       2.10540000
H       -3.70730000      -2.10920000       2.15980000
H       -5.04820000      -2.42340000      -0.87720000
H       -3.85910000      -1.31110000      -1.61640000
H       -3.10940000      -3.74540000       0.04700000
