18
Properties=species:S:1:pos:R:3 gdb_15600=T pbc="F F F"
C       -0.64650000       1.38980000      -0.05220000
C        0.02350000       0.01640000      -0.03180000
C        1.30070000      -0.10320000      -0.88310000
C        2.01060000      -1.32740000      -0.28210000
O        1.45470000      -1.52940000       1.02540000
C        0.55800000      -0.48990000       1.33620000
C        1.23530000       0.62620000       2.12600000
O        2.42150000       0.82920000       2.12600000
H        0.04900000       2.18480000       0.23710000
H       -1.00840000       1.62170000      -1.05850000
H       -1.50720000       1.43010000       0.62380000
H       -0.69820000      -0.73650000      -0.37100000
H        1.08480000      -0.22180000      -1.94770000
H        1.91450000       0.79500000      -0.76160000
H        1.83070000      -2.23730000      -0.86780000
H        3.09190000      -1.17920000      -0.19690000
H       -0.24930000      -0.89920000       1.95860000
H        0.53710000       1.26960000       2.71160000
