14
Properties=species:S:1:pos:R:3 gdb_25842=T pbc="F F F"
N       -0.09680000       1.30000000       0.22850000
C        0.06870000      -0.05420000       0.07790000
N        1.15660000      -0.71760000      -0.02440000
C       -1.23540000      -0.80860000       0.07030000
N       -2.35620000      -0.07430000       0.04440000
C       -3.48950000      -0.77350000       0.02710000
N       -3.58420000      -2.10050000       0.03460000
C       -2.40110000      -2.72310000       0.06270000
N       -1.20610000      -2.14280000       0.08160000
H        0.67850000       1.90280000       0.01010000
H       -1.02680000       1.66370000       0.08720000
H        1.96560000      -0.09210000      -0.01250000
H       -4.41830000      -0.20760000       0.00410000
H       -2.41920000      -3.81080000       0.07260000
