23
Properties=species:S:1:pos:R:3 gdb_59535=T pbc="F F F"
C        0.00450000       1.57480000       0.00770000
C        0.09980000       0.04870000       0.14180000
C        0.72520000      -0.34900000       1.48540000
C       -1.28190000      -0.59180000      -0.02490000
C       -2.01760000      -0.54160000      -1.40610000
C       -2.25180000      -2.05610000      -1.32930000
C       -0.94660000      -2.78490000      -1.25530000
O        0.21910000      -2.34790000      -1.90160000
C       -1.43470000      -2.12360000      -0.00970000
H        0.99280000       2.04080000       0.08320000
H       -0.42890000       1.86900000      -0.95400000
H       -0.62350000       2.00230000       0.79970000
H        0.74160000      -0.33200000      -0.65910000
H        0.11540000       0.00560000       2.32620000
H        0.81970000      -1.43590000       1.57400000
H        1.72520000       0.08280000       1.59880000
H       -1.95260000      -0.17450000       0.73720000
H       -2.93760000       0.04500000      -1.38290000
H       -1.41140000      -0.21190000      -2.25570000
H       -3.17590000      -2.55990000      -1.58910000
H       -1.05160000      -3.87080000      -1.22810000
H        0.09150000      -2.46270000      -2.84950000
H       -1.63010000      -2.70940000       0.88180000
