20
Properties=species:S:1:pos:R:3 gdb_39211=T pbc="F F F"
C        0.05120000       1.62680000       0.02780000
C        1.58650000       1.41800000       0.08300000
C        1.31260000      -0.01690000       0.62230000
C       -0.11270000       0.08270000      -0.00500000
C       -0.14560000      -0.50830000      -1.40990000
N       -0.27800000       0.40250000      -2.56550000
C        0.97700000      -0.33100000      -2.36880000
C        2.26120000       0.42760000      -2.06200000
O        2.19020000       1.53840000      -1.19820000
H       -0.33310000       2.04690000       0.96160000
H       -0.32280000       2.18770000      -0.82770000
H        2.15680000       2.08640000       0.73400000
H        1.95970000      -0.83780000       0.30540000
H        1.28130000       0.00080000       1.71510000
H       -0.93490000      -0.32960000       0.58560000
H       -0.66550000      -1.46250000      -1.47690000
H       -0.83370000      -0.02290000      -3.30170000
H        1.17570000      -1.17130000      -3.03610000
H        2.99490000      -0.31130000      -1.69750000
H        2.66160000       0.83380000      -2.99830000
