19
Properties=species:S:1:pos:R:3 gdb_80686=T pbc="F F F"
C       -0.09530000       1.56010000       0.03260000
C        0.05620000       0.05850000      -0.04790000
C        0.70500000      -0.67370000      -1.18860000
C        1.64160000       0.09310000      -2.12590000
C        2.77860000       0.53110000      -1.22340000
C        3.89910000       1.35220000      -1.67050000
O        4.01960000       1.79380000      -2.79420000
C        2.62630000       0.06000000       0.02970000
C        1.36870000      -0.69680000       0.19600000
H        0.79820000       2.08880000      -0.30650000
H       -0.93520000       1.89240000      -0.58760000
H       -0.29780000       1.87500000       1.06190000
H       -0.79350000      -0.47800000       0.36900000
H        0.20840000      -1.55790000      -1.57090000
H        2.01260000      -0.54170000      -2.93850000
H        1.15730000       0.95050000      -2.60750000
H        4.66990000       1.54730000      -0.89050000
H        3.33460000       0.22470000       0.83570000
H        1.34220000      -1.55700000       0.85570000
