18
Properties=species:S:1:pos:R:3 gdb_56992=T pbc="F F F"
O        0.65820000      -0.41420000      -1.16880000
C       -0.12720000      -0.02350000      -0.04310000
C       -1.47140000      -0.60160000      -0.08030000
C       -2.55100000      -1.12870000      -0.11710000
C        0.60630000      -0.39700000       1.25290000
C        1.98580000       0.25000000       1.54370000
C        1.36830000       0.72960000       2.85650000
C        0.17230000       1.54950000       2.60560000
N        0.02090000       0.07910000       2.56050000
H        0.57440000      -1.36990000      -1.26120000
H       -0.20240000       1.06600000      -0.12630000
H       -3.51390000      -1.57630000      -0.14600000
H        0.65670000      -1.48900000       1.30320000
H        2.78270000      -0.48480000       1.66330000
H        2.32870000       1.03050000       0.85840000
H        1.82650000       0.64690000       3.83640000
H       -0.33750000       1.98100000       3.46110000
H        0.10050000       2.14360000       1.69780000
