19
Properties=species:S:1:pos:R:3 gdb_64402=T pbc="F F F"
C       -0.35950000       1.66300000       0.18400000
C        0.03430000       0.19210000       0.08650000
C       -1.15350000      -0.68270000      -0.33480000
O        1.09650000       0.09370000      -0.87040000
C        1.91650000      -1.00160000      -0.52310000
O        1.55080000      -1.42080000       0.78240000
C        0.73700000      -0.41430000       1.33920000
C        1.54700000       0.60970000       2.12420000
O        2.73780000       0.74220000       2.02770000
H        0.51010000       2.29050000       0.39310000
H       -0.78970000       1.99060000      -0.76640000
H       -1.10940000       1.81830000       0.96580000
H       -1.48200000      -0.39720000      -1.33800000
H       -0.87360000      -1.73950000      -0.34730000
H       -1.99540000      -0.55800000       0.35370000
H        1.76550000      -1.85340000      -1.20150000
H        2.96180000      -0.67100000      -0.55180000
H        0.01500000      -0.88340000       2.01860000
H        0.94270000       1.24470000       2.81310000
