21
Properties=species:S:1:pos:R:3 gdb_28423=T pbc="F F F"
C       -0.03650000       1.53830000       0.00940000
C       -0.02500000       0.02920000      -0.01100000
C       -0.04040000      -0.68090000      -1.20980000
C       -0.00510000      -2.07290000      -1.20740000
C        0.04400000      -2.80070000      -0.01940000
C        0.07820000      -4.30860000      -0.04760000
C        0.05630000      -2.09630000       1.20030000
C        0.10340000      -2.83300000       2.51640000
C        0.02070000      -0.70280000       1.17930000
H        0.96860000       1.94390000       0.17990000
H       -0.39630000       1.94690000      -0.93910000
H       -0.67720000       1.92410000       0.80890000
H       -0.08130000      -0.14500000      -2.15360000
H       -0.01960000      -2.60810000      -2.15280000
H        0.97690000      -4.70550000       0.44020000
H       -0.77990000      -4.74630000       0.47720000
H        0.06510000      -4.68190000      -1.07480000
H        1.00050000      -3.45850000       2.59940000
H        0.10390000      -2.13620000       3.35850000
H       -0.75590000      -3.50360000       2.63760000
H        0.02730000      -0.16700000       2.12580000
