18
Properties=species:S:1:pos:R:3 gdb_53962=T pbc="F F F"
C       -0.17940000       1.52130000       0.08190000
C        0.04180000       0.00770000      -0.04230000
O        0.80850000      -0.48450000       1.04830000
C       -1.30620000      -0.71900000      -0.08130000
C       -1.43170000      -2.12580000       0.30310000
O       -1.80800000      -1.07400000       1.21320000
C        0.76580000      -0.30100000      -1.36680000
N        1.90180000      -1.02510000      -1.23710000
O        0.30210000       0.07660000      -2.42800000
H        0.78070000       2.02470000       0.22080000
H       -0.65460000       1.90800000      -0.82200000
H       -0.81470000       1.73830000       0.94630000
H        0.17260000      -0.65120000       1.75990000
H       -2.03900000      -0.29090000      -0.76080000
H       -2.25980000      -2.71650000      -0.08150000
H       -0.54330000      -2.68250000       0.59030000
H        2.23860000      -1.26510000      -0.32040000
H        2.43740000      -1.24150000      -2.06090000
