14
Properties=species:S:1:pos:R:3 gdb_131464=T pbc="F F F"
O       -0.03640000       1.25930000      -0.24130000
C       -0.08440000      -0.11230000      -0.05250000
C       -0.48260000      -0.59070000       1.33650000
C       -1.48740000      -0.64320000       0.17630000
C       -1.37510000      -2.15180000       0.27660000
C       -1.23150000      -3.44870000      -0.15670000
N       -0.31750000      -4.04920000       0.67770000
N        0.17130000      -3.19380000       1.54240000
N       -0.53260000      -2.06230000       1.33570000
H        0.85760000       1.56480000      -0.05140000
H        0.62010000      -0.71200000      -0.62960000
H       -0.47430000       0.00640000       2.23660000
H       -2.36540000      -0.03300000       0.02710000
H       -1.71160000      -4.00410000      -0.94430000
