20
Properties=species:S:1:pos:R:3 gdb_38228=T pbc="F F F"
C        0.03220000       1.76330000      -0.07170000
C        1.50680000       1.50870000       0.13150000
C        1.03080000       0.31660000       1.09750000
C       -0.04770000       0.18350000      -0.06180000
C       -1.34730000      -0.21290000      -0.75080000
C       -0.92180000       0.37190000      -2.18370000
N        0.59470000       0.31170000      -2.31410000
C        1.77190000       0.81040000      -1.23830000
C        0.96000000      -0.37300000      -1.12020000
H       -0.48450000       2.13310000       0.81850000
H       -0.26180000       2.34260000      -0.94370000
H        2.20850000       2.27600000       0.46090000
H        1.70150000      -0.53380000       1.24590000
H        0.67470000       0.69310000       2.05930000
H       -1.53210000      -1.28980000      -0.81770000
H       -2.24300000       0.27580000      -0.35890000
H       -1.27270000      -0.29230000      -2.98050000
H       -1.33990000       1.36170000      -2.37720000
H        2.70250000       0.87310000      -1.78790000
H        1.24530000      -1.42570000      -1.07150000
