17
Properties=species:S:1:pos:R:3 gdb_49809=T pbc="F F F"
N       -0.12490000       1.29470000      -0.81590000
C       -0.07260000       0.07210000      -0.48700000
N       -1.07280000      -0.55780000       0.27290000
C       -2.14370000       0.25060000       0.74130000
N       -3.25800000      -0.08290000       1.23220000
C       -3.66920000      -1.46400000       1.37820000
C       -2.64790000      -2.37060000       2.08570000
N       -1.49340000      -2.73660000       1.29320000
C       -0.87500000      -1.92910000       0.54760000
H        0.70090000       1.55580000      -1.34940000
H        0.73480000      -0.61940000      -0.74630000
H       -1.90730000       1.30170000       0.60660000
H       -4.60360000      -1.47410000       1.94950000
H       -3.89650000      -1.89300000       0.39270000
H       -2.31810000      -1.87590000       3.00860000
H       -3.14620000      -3.29800000       2.38970000
H       -0.00980000      -2.30800000       0.00120000
