19
Properties=species:S:1:pos:R:3 gdb_103606=T pbc="F F F"
C       -0.37340000       1.26460000      -1.10190000
C        0.19790000      -0.07740000      -0.67970000
O        1.55620000      -0.32070000      -1.13450000
C        2.09550000      -0.49400000       0.21820000
C        2.67180000      -1.88370000       0.43620000
C        3.11560000       0.62440000       0.47960000
O        4.12270000       0.59830000      -0.50980000
C        0.68520000      -0.23470000       0.76750000
O        0.19010000      -0.16850000       1.85180000
H        0.26350000       2.08960000      -0.77110000
H       -0.46330000       1.31080000      -2.19110000
H       -1.36880000       1.39590000      -0.66640000
H       -0.46680000      -0.89580000      -0.99090000
H        3.60850000      -1.97870000      -0.11950000
H        2.87740000      -2.03960000       1.49980000
H        1.97640000      -2.65540000       0.09700000
H        2.60330000       1.59820000       0.50580000
H        3.60240000       0.47540000       1.44820000
H        3.65950000       0.63000000      -1.35700000
