18
Properties=species:S:1:pos:R:3 gdb_78886=T pbc="F F F"
C        0.08250000       1.57070000      -0.03320000
C       -0.01450000       0.04450000      -0.01440000
C        0.78690000      -0.65700000      -1.08630000
C        1.20980000      -2.01410000      -0.65290000
C        1.12900000      -2.00400000       0.87960000
C        2.12020000      -0.86470000       0.84180000
N        2.21460000      -0.89920000      -0.66410000
C        0.67200000      -0.59170000       1.18820000
O        0.28840000      -0.31620000       2.49180000
H        1.12810000       1.89670000      -0.02950000
H       -0.39680000       1.98960000      -0.92320000
H       -0.41730000       2.00170000       0.84150000
H       -1.06540000      -0.26750000      -0.05950000
H        0.66930000      -0.41550000      -2.13690000
H        1.31180000      -2.88170000      -1.29470000
H        1.03100000      -2.83280000       1.56530000
H        2.98070000      -0.62690000       1.45330000
H        0.61190000       0.56200000       2.72230000
