19
Properties=species:S:1:pos:R:3 gdb_38688=T pbc="F F F"
C       -0.00450000       1.54530000      -0.21280000
C        1.28860000       0.80060000       0.00660000
O        2.04690000       0.93080000       1.18650000
C        1.59300000       0.18580000       2.33300000
C        0.95600000      -1.15020000       1.91470000
C       -0.38340000      -0.60780000       1.35750000
C       -0.72090000       0.43160000       2.41940000
C        0.39810000       0.88260000       2.98420000
C       -0.02000000       0.04370000       0.00820000
H       -0.35730000       2.18540000       0.58620000
H       -0.20890000       1.90990000      -1.21420000
H        1.95100000       0.69070000      -0.84740000
H        2.47350000       0.09400000       2.97210000
H        1.55150000      -1.69390000       1.17670000
H        0.80070000      -1.77980000       2.79490000
H       -1.16010000      -1.36410000       1.22510000
H       -1.72730000       0.79070000       2.60010000
H        0.48920000       1.67890000       3.71260000
H       -0.21990000      -0.57840000      -0.85920000
