19
Properties=species:S:1:pos:R:3 gdb_78475=T pbc="F F F"
O       -0.15230000       1.45690000      -0.00610000
C        0.02470000       0.06860000      -0.02870000
C       -1.26170000      -0.70350000       0.06370000
C       -0.46720000      -0.67910000      -1.24370000
C       -0.06080000      -2.15720000      -1.39520000
C       -1.34250000      -2.87450000      -0.93600000
C       -1.27190000      -2.19790000       0.46070000
C        0.13900000      -2.65130000       0.85500000
O        0.88880000      -2.52240000      -0.37280000
H        0.55030000       1.85060000      -0.53410000
H        0.92240000      -0.28920000       0.46740000
H       -2.16710000      -0.11950000       0.18070000
H       -0.79580000      -0.11450000      -2.10970000
H        0.36260000      -2.42990000      -2.36200000
H       -2.22610000      -2.58340000      -1.50830000
H       -1.24760000      -3.96460000      -0.91200000
H       -2.04470000      -2.46670000       1.18090000
H        0.59860000      -2.03290000       1.63320000
H        0.15220000      -3.69730000       1.18870000
