14
Properties=species:S:1:pos:R:3 gdb_20676=T pbc="F F F"
C        0.07280000       1.49180000       0.04930000
C       -0.00210000      -0.00330000       0.02240000
C       -0.09570000      -0.70890000      -1.11850000
O       -0.16700000      -2.05820000      -1.21470000
N       -0.14580000      -2.83150000      -0.06440000
C       -0.05730000      -2.20540000       1.05420000
C        0.02500000      -0.75590000       1.26770000
N        0.11260000      -0.17610000       2.41270000
H        0.99230000       1.81790000       0.54620000
H        0.04150000       1.91470000      -0.95810000
H       -0.75420000       1.90380000       0.63660000
H       -0.12510000      -0.26840000      -2.10890000
H       -0.04530000      -2.86650000       1.91940000
H        0.11750000      -0.86580000       3.16770000
