23
Properties=species:S:1:pos:R:3 gdb_77075=T pbc="F F F"
C       -0.73080000       0.92500000      -0.13290000
C       -0.01590000      -0.39170000       0.12350000
C        1.30150000      -0.69980000      -0.66140000
C        1.83430000      -1.41530000       0.61920000
C        0.75780000      -0.66560000       1.46380000
C        1.33090000       0.59840000       2.11220000
C        0.00720000      -1.50270000       2.49530000
C        1.21460000      -1.44240000      -1.90090000
C        1.12170000      -2.07550000      -2.92000000
H       -0.06500000       1.78390000      -0.00190000
H       -1.11660000       0.95730000      -1.15760000
H       -1.58210000       1.05550000       0.54470000
H       -0.71040000      -1.22210000      -0.04440000
H        1.85630000       0.23050000      -0.82830000
H        1.64620000      -2.49080000       0.57450000
H        2.88350000      -1.24760000       0.87560000
H        1.89340000       1.21240000       1.40130000
H        0.53960000       1.22480000       2.53860000
H        2.01510000       0.32900000       2.92470000
H        0.66220000      -1.78910000       3.32680000
H       -0.83680000      -0.94540000       2.91940000
H       -0.38860000      -2.42150000       2.05000000
H        1.04650000      -2.63030000      -3.82190000
