16
Properties=species:S:1:pos:R:3 gdb_79420=T pbc="F F F"
O        0.16710000       1.47660000       0.20560000
C        0.06070000       0.08410000       0.07990000
C       -1.35460000      -0.57970000       0.11010000
C       -2.77450000      -0.22980000      -0.47080000
C       -2.10520000       0.65850000      -1.52200000
C       -1.30540000      -0.69100000      -1.42450000
N       -2.66990000      -1.39170000      -1.50170000
C        0.22640000      -0.55450000      -1.40850000
O        1.17310000      -0.88040000      -2.05060000
H        1.07280000       1.72740000      -0.01010000
H        0.73950000      -0.43470000       0.77240000
H       -1.31490000      -1.52900000       0.65210000
H       -3.71300000      -0.08450000       0.06950000
H       -2.64750000       0.77280000      -2.45990000
H       -1.61050000       1.56100000      -1.17740000
H       -2.59260000      -2.27940000      -0.99240000
