14
Properties=species:S:1:pos:R:3 gdb_46340=T pbc="F F F"
O       -0.05280000      -0.01540000       0.00100000
C       -0.06820000       1.17160000       0.05990000
C       -1.14660000       2.24000000       0.26810000
C       -0.02140000       3.26700000       0.58540000
C        1.06750000       2.26350000       0.06030000
C        2.25440000       2.02550000       0.83350000
C        3.23020000       1.80540000       1.51320000
C        4.33540000       1.56850000       2.27690000
N        5.27700000       1.37110000       2.92870000
H       -1.68680000       2.44840000      -0.66120000
H       -1.87620000       2.02140000       1.05080000
H       -0.06420000       4.21750000       0.05520000
H        0.08760000       3.45320000       1.65410000
H        1.32590000       2.47970000      -0.98430000
