17
Properties=species:S:1:pos:R:3 gdb_9312=T pbc="F F F"
C        0.00980000       1.46450000      -0.14340000
C       -0.14910000      -0.05760000      -0.12360000
C       -1.48960000      -0.49120000       0.48410000
N       -1.66510000      -1.93410000       0.52490000
C       -2.35810000      -2.61330000      -0.43330000
O       -2.93020000      -2.08490000      -1.37000000
C       -2.36410000      -4.05840000      -0.22760000
C       -2.38490000      -5.25260000      -0.08910000
H        0.96900000       1.75550000      -0.58100000
H       -0.78280000       1.93690000      -0.73360000
H       -0.03530000       1.88390000       0.86800000
H       -0.08430000      -0.45870000      -1.14120000
H        0.67130000      -0.51250000       0.44640000
H       -1.58830000      -0.09930000       1.50360000
H       -2.31640000      -0.09280000      -0.10920000
H       -1.18270000      -2.47180000       1.22710000
H       -2.41270000      -6.30930000       0.02070000
