16
Properties=species:S:1:pos:R:3 gdb_14357=T pbc="F F F"
C       -0.06200000       1.59630000       0.11550000
C        1.42580000       1.24580000       0.05550000
O        1.14930000       0.07650000       0.96590000
C        0.10280000       0.05550000      -0.09700000
C       -0.88800000      -0.87200000      -0.70960000
C       -0.76290000      -0.70720000      -2.03850000
C        0.36420000       0.26480000      -2.45000000
C        1.18250000       0.26930000      -1.14660000
H       -0.43070000       1.89100000       1.09780000
H       -0.49740000       2.18320000      -0.69650000
H        2.30150000       1.84230000       0.31300000
H       -1.64940000      -1.45250000      -0.20500000
H       -1.42480000      -1.15300000      -2.77400000
H        0.92370000      -0.08360000      -3.32330000
H       -0.06490000       1.23870000      -2.71550000
H        1.91060000      -0.54470000      -1.13440000
