14
Properties=species:S:1:pos:R:3 gdb_33714=T pbc="F F F"
N        0.16860000      -1.09980000      -0.00490000
C        0.03260000       0.05010000      -0.02380000
C       -0.10940000       1.46930000      -0.03990000
C       -1.23010000       2.18350000       0.61310000
C       -1.28860000       3.44500000       0.16230000
C       -0.10280000       3.67320000      -0.72860000
O        1.08640000       3.65210000       0.19400000
C        1.28620000       2.32210000      -0.13920000
C        0.32960000       2.27340000      -1.25780000
H       -1.83060000       1.74000000       1.39610000
H       -1.93620000       4.23240000       0.52190000
H       -0.06280000       4.54700000      -1.37430000
H        2.22510000       1.84120000       0.10200000
H        0.37500000       1.89560000      -2.27080000
