21
Properties=species:S:1:pos:R:3 gdb_68900=T pbc="F F F"
C       -0.08880000       1.51370000      -0.00150000
C        0.02630000       0.00720000       0.00070000
C        1.36840000      -0.65370000      -0.23350000
C        0.70290000      -0.79190000       1.11960000
C        1.32780000      -0.15930000       2.34110000
C       -0.07100000      -2.08510000       1.31860000
C       -1.05170000      -2.17400000       0.14420000
O       -1.63350000      -3.16530000      -0.21200000
C       -1.16970000      -0.78750000      -0.49840000
H        0.80110000       1.99320000       0.41530000
H       -0.21420000       1.89250000      -1.02260000
H       -0.95490000       1.84860000       0.58180000
H        1.42960000      -1.51950000      -0.88880000
H        2.23450000      -0.00180000      -0.29170000
H        1.82270000       0.78670000       2.10480000
H        0.57750000       0.03880000       3.11590000
H        2.08410000      -0.82170000       2.77800000
H        0.54790000      -2.98700000       1.36720000
H       -0.65830000      -2.05180000       2.24750000
H       -2.11160000      -0.33540000      -0.15590000
H       -1.23870000      -0.87700000      -1.58740000
