19
Properties=species:S:1:pos:R:3 gdb_108716=T pbc="F F F"
C       -0.18900000       1.56350000      -0.13600000
C        0.11860000       0.06110000       0.02090000
C        0.79830000      -0.52170000      -1.18000000
C        2.07700000      -0.94000000      -1.25390000
C        2.35500000      -1.47220000      -2.59240000
O        3.28250000      -2.14870000      -2.98530000
C        1.16840000      -1.08270000      -3.48990000
O        0.83930000      -2.11200000      -4.38690000
C        0.05760000      -0.73020000      -2.48930000
H        0.73100000       2.13700000      -0.28250000
H       -0.84550000       1.75400000      -0.99000000
H       -0.68810000       1.94280000       0.76000000
H        0.74310000      -0.09330000       0.90670000
H       -0.82310000      -0.47690000       0.19320000
H        2.79310000      -0.95750000      -0.44150000
H        1.46640000      -0.16720000      -4.03180000
H        1.66740000      -2.59160000      -4.53810000
H       -0.63490000      -1.57660000      -2.40160000
H       -0.53700000       0.14140000      -2.77960000
