19
Properties=species:S:1:pos:R:3 gdb_119691=T pbc="F F F"
C       -0.66700000       1.36930000       0.52890000
O       -0.83480000      -0.02370000       0.64120000
C       -0.60450000      -0.70780000      -0.57460000
C       -0.81550000      -2.16910000      -0.33910000
C       -0.78720000      -3.30800000      -1.35860000
C       -1.36040000      -4.17420000      -0.20650000
O       -0.26410000      -4.24550000       0.74750000
C       -0.51550000      -2.86380000       1.00440000
C       -1.90900000      -2.86230000       0.47430000
H       -0.86920000       1.80340000       1.51100000
H        0.35840000       1.63400000       0.22640000
H       -1.36370000       1.80620000      -0.20390000
H       -1.28890000      -0.33520000      -1.35790000
H        0.42400000      -0.52230000      -0.93360000
H       -1.52240000      -3.15170000      -2.15320000
H        0.17290000      -3.62900000      -1.77670000
H       -1.86400000      -5.12490000      -0.36750000
H       -0.05900000      -2.38080000       1.85630000
H       -2.86210000      -2.53750000       0.86700000
