18
Properties=species:S:1:pos:R:3 gdb_5619=T pbc="F F F"
C        0.05410000       1.41040000       0.06230000
N       -0.11330000      -0.02700000      -0.03550000
C        0.57790000      -0.68000000      -1.06610000
C        1.20850000      -0.11190000      -2.15450000
N        1.68810000      -1.14520000      -2.93600000
C        1.38250000      -2.34430000      -2.35440000
C        0.68930000      -2.10340000      -1.18930000
C        0.13950000      -3.11220000      -0.22930000
H        1.10790000       1.73210000       0.12840000
H       -0.38350000       1.89120000      -0.82030000
H       -0.47980000       1.78010000       0.94150000
H        0.01480000      -0.48840000       0.85530000
H        1.34680000       0.91640000      -2.44150000
H        2.18340000      -1.02930000      -3.80050000
H        1.67380000      -3.27830000      -2.80910000
H        0.61290000      -3.04920000       0.76060000
H       -0.93800000      -2.97680000      -0.07350000
H        0.29720000      -4.13100000      -0.59500000
