18
Properties=species:S:1:pos:R:3 gdb_117897=T pbc="F F F"
C       -0.07940000       1.44170000      -0.24590000
C        0.01700000      -0.07410000       0.04130000
C        0.79000000      -0.42000000       1.31900000
C        2.27180000      -0.06610000       1.25020000
O        2.86840000      -0.54280000       2.44430000
C       -1.38030000      -0.66820000       0.08860000
O       -1.88400000      -1.21150000       1.03750000
C       -2.15110000      -0.54320000      -1.17500000
N       -2.74200000      -0.45450000      -2.16500000
H        0.91390000       1.85850000      -0.42580000
H       -0.68840000       1.64510000      -1.13110000
H       -0.52240000       1.96800000       0.60550000
H        0.50550000      -0.54210000      -0.82770000
H        0.33680000       0.08780000       2.17690000
H        0.70530000      -1.49240000       1.51980000
H        2.72540000      -0.53550000       0.36050000
H        2.40620000       1.02170000       1.14840000
H        3.79800000      -0.29710000       2.43820000
