16
Properties=species:S:1:pos:R:3 gdb_14722=T pbc="F F F"
C       -0.05230000       1.52130000       0.01110000
C       -0.02710000       0.00340000       0.00250000
O       -1.36610000      -0.46410000       0.01250000
C       -1.44580000      -1.87030000       0.00570000
C       -2.83550000      -2.29960000       0.01640000
C       -3.97570000      -2.69610000       0.02490000
C       -5.35130000      -3.12020000       0.03520000
O       -5.71300000      -4.27450000       0.03360000
H        0.96740000       1.91720000       0.00370000
H       -0.57970000       1.90050000      -0.86830000
H       -0.56310000       1.89080000       0.90440000
H        0.49770000      -0.37350000      -0.89140000
H        0.51440000      -0.38320000       0.88230000
H       -0.94710000      -2.29280000      -0.88490000
H       -0.93040000      -2.30230000       0.88220000
H       -6.07880000      -2.28330000       0.04510000
