20
Properties=species:S:1:pos:R:3 gdb_75893=T pbc="F F F"
C        0.24580000       1.61890000      -0.20860000
C        0.03300000       0.12080000       0.05100000
C        0.58010000      -0.70010000      -1.10400000
N        0.04720000      -0.80620000      -2.24220000
O        1.76620000      -1.28360000      -0.74490000
C        2.10740000      -0.91910000       0.59410000
C        0.79000000      -0.47460000       1.25870000
C        0.99420000       0.43440000       2.46600000
O        0.02070000      -1.62340000       1.62130000
H        1.30720000       1.87170000      -0.30840000
H       -0.24920000       1.89340000      -1.14300000
H       -0.17490000       2.22490000       0.59860000
H       -1.03330000      -0.08250000       0.16420000
H        0.62270000      -1.38390000      -2.85740000
H        2.54850000      -1.79090000       1.08730000
H        2.85040000      -0.11100000       0.57770000
H        1.54020000       1.34570000       2.20940000
H        0.02790000       0.71290000       2.89520000
H        1.56750000      -0.08840000       3.24140000
H        0.49020000      -2.09420000       2.31870000
