19
Properties=species:S:1:pos:R:3 gdb_74769=T pbc="F F F"
C        0.40520000       1.52420000       0.10610000
C        0.15450000       0.05690000       0.11920000
C       -0.28360000      -0.78290000      -0.82690000
C       -0.30800000      -2.14630000      -0.12180000
C       -0.93490000      -1.74180000       1.25240000
C        0.37020000      -0.87510000       1.32960000
C        1.09490000      -2.07260000       0.62590000
C        1.47570000      -3.27190000       1.44850000
O        1.34770000      -3.38260000       2.64360000
H        1.45390000       1.75380000       0.33570000
H        0.16830000       1.96090000      -0.86830000
H       -0.19700000       2.03970000       0.86540000
H       -0.56650000      -0.58590000      -1.85160000
H       -0.61920000      -3.02860000      -0.68070000
H       -1.88440000      -1.20430000       1.21650000
H       -0.96080000      -2.54550000       1.99070000
H        0.73720000      -0.45620000       2.26550000
H        1.93290000      -1.82460000      -0.03580000
H        1.91760000      -4.10200000       0.84710000
