21
Properties=species:S:1:pos:R:3 gdb_78290=T pbc="F F F"
C       -0.07370000       1.46000000       0.02870000
C        0.02490000      -0.05220000      -0.00470000
C        0.73500000      -0.65960000      -1.18950000
C        1.39460000      -0.65060000       0.18240000
C        1.43900000      -2.20810000       0.14610000
O        2.56240000      -2.90700000       0.55300000
C        0.09530000      -2.86550000      -0.04760000
C        0.80780000      -2.21900000      -1.22490000
C        1.18380000      -2.96270000      -2.47230000
H        0.81830000       1.92530000      -0.40430000
H       -0.94210000       1.81040000      -0.53960000
H       -0.17420000       1.82550000       1.05640000
H       -0.84260000      -0.54750000       0.42010000
H        1.00220000      -0.06160000      -2.05320000
H        2.24990000      -0.06730000       0.50150000
H        2.46680000      -3.11340000       1.49010000
H        0.17020000      -3.94980000      -0.06630000
H       -0.83600000      -2.50220000       0.37410000
H        0.35320000      -2.98870000      -3.18850000
H        2.03770000      -2.49030000      -2.97170000
H        1.46270000      -3.99550000      -2.24290000
