21
Properties=species:S:1:pos:R:3 gdb_82835=T pbc="F F F"
C       -0.26100000       1.53880000       0.02650000
C        0.07310000       0.05440000       0.00920000
C        1.06530000      -0.52850000      -1.03830000
C        2.44110000       0.18550000      -1.08680000
C        2.88820000      -0.50780000       0.22460000
C        2.23480000       0.11050000       1.48640000
C        0.89080000      -0.59500000       1.16380000
C        1.63420000      -1.46900000       0.10140000
O        1.60240000      -2.84730000       0.16080000
H        0.63250000       2.16310000       0.12230000
H       -0.77200000       1.83580000      -0.89650000
H       -0.92270000       1.78130000       0.86590000
H       -0.85690000      -0.51990000      -0.08130000
H        0.64450000      -0.87560000      -1.98410000
H        3.02840000      -0.17340000      -1.93820000
H        2.44950000       1.27980000      -1.10550000
H        3.92500000      -0.83960000       0.29950000
H        2.67350000      -0.30780000       2.39700000
H        2.23670000       1.20180000       1.57290000
H        0.32960000      -1.01320000       2.00000000
H        2.09210000      -3.19980000      -0.59080000
