13
Properties=species:S:1:pos:R:3 gdb_21137=T pbc="F F F"
C       -0.00590000       1.44810000       0.12590000
N        0.14180000       0.00550000       0.06580000
C        0.61470000      -0.52950000      -0.97800000
N        0.73950000      -1.93870000      -0.99010000
N        1.20690000      -2.68000000      -1.97450000
N        1.59810000      -2.10280000      -3.04810000
C        1.49150000      -0.71240000      -3.07910000
N        1.04790000       0.07320000      -2.16140000
H        0.56510000       1.83040000       0.97990000
H        0.32110000       1.96750000      -0.78100000
H       -1.05760000       1.69200000       0.31540000
H        0.44530000      -2.44820000      -0.16620000
H        1.83720000      -0.27630000      -4.01400000
