12
Properties=species:S:1:pos:R:3 gdb_25349=T pbc="F F F"
O       -0.99640000       1.40610000       0.00630000
C        0.11190000       1.03350000      -0.26340000
C        1.34940000       1.89560000      -0.11970000
N        2.46260000       1.31190000      -0.46440000
C        3.64800000       2.02960000      -0.36460000
O        4.74710000       1.62570000      -0.64360000
N        3.47200000       3.35740000       0.11900000
C        2.26420000       3.85400000       0.44590000
N        1.16400000       3.17130000       0.34830000
H        0.34630000       0.02070000      -0.64550000
H        4.31250000       3.91380000       0.20630000
H        2.23890000       4.88030000       0.80650000
