11
Properties=species:S:1:pos:R:3 gdb_132327=T pbc="F F F"
F        0.10370000       0.08220000       0.00200000
C       -0.04530000       1.37960000       0.01120000
C       -1.24770000       1.99010000       0.03100000
C       -1.14910000       3.41510000       0.03760000
F       -2.29420000       4.06950000       0.05690000
N       -0.07380000       4.10880000       0.02660000
C        1.13360000       3.47140000       0.00660000
N        2.25700000       4.03360000      -0.00730000
O        1.10700000       2.00470000      -0.00090000
H       -2.18170000       1.45290000       0.04070000
H        3.01590000       3.35600000      -0.02180000
