21
Properties=species:S:1:pos:R:3 gdb_41914=T pbc="F F F"
C       -0.01500000       1.50700000      -0.17300000
C        1.36620000       2.17830000       0.04690000
C        2.32800000       1.36460000       0.93470000
C        1.81120000       1.14840000       2.36230000
O        0.54060000       0.51050000       2.41470000
C        0.28440000      -0.47360000       1.44760000
C       -0.03890000      -0.00240000       0.04740000
C        1.24590000      -0.76990000       0.32500000
C        2.55800000      -0.01500000       0.29940000
H       -0.74750000       1.95370000       0.50890000
H       -0.36190000       1.72950000      -1.18700000
H        1.86130000       2.31810000      -0.92130000
H        1.22380000       3.18060000       0.46550000
H        3.28090000       1.90220000       1.01040000
H        2.55410000       0.55800000       2.92400000
H        1.67980000       2.10180000       2.88510000
H       -0.28780000      -1.28950000       1.87850000
H       -0.82470000      -0.53450000      -0.48090000
H        1.28180000      -1.80100000      -0.01530000
H        2.92510000       0.08920000      -0.72920000
H        3.32190000      -0.56760000       0.86070000
