16
Properties=species:S:1:pos:R:3 gdb_795=T pbc="F F F"
C       -0.13890000       1.51960000      -0.02570000
C       -0.01080000       0.01920000      -0.00150000
C        0.07820000      -0.70810000       1.31350000
C        1.40660000      -0.45360000       2.04750000
O        1.43380000      -1.04680000       3.33350000
N        0.04180000      -0.70710000      -1.05330000
O       -0.02260000       0.07050000      -2.22240000
H        0.76690000       1.97970000      -0.43590000
H       -0.96090000       1.81690000      -0.68340000
H       -0.31320000       1.92190000       0.97420000
H       -0.73940000      -0.39100000       1.97290000
H       -0.03400000      -1.78140000       1.12720000
H        2.24230000      -0.80030000       1.42050000
H        1.55010000       0.61900000       2.21510000
H        1.38400000      -2.00130000       3.21840000
H       -0.00460000      -0.60130000      -2.91180000
