21
Properties=species:S:1:pos:R:3 gdb_64510=T pbc="F F F"
O       -0.07000000       1.39540000       0.03940000
C       -0.01220000      -0.00980000       0.04990000
C        1.12950000      -0.59040000      -0.74140000
C        1.55710000       0.03880000      -2.04170000
C        2.45840000       0.11900000      -0.83320000
C       -0.43980000      -0.79230000       1.26330000
C       -1.54810000      -0.05910000       2.02890000
C       -2.41560000      -0.02390000       0.73070000
C       -1.30380000      -0.76130000      -0.02440000
H        0.55840000       1.72170000       0.69250000
H        1.17560000      -1.67490000      -0.69480000
H        1.84130000      -0.61060000      -2.86210000
H        1.04900000       0.95060000      -2.33350000
H        2.55680000       1.08870000      -0.35730000
H        3.36200000      -0.47990000      -0.81130000
H        0.17680000      -1.59100000       1.66150000
H       -1.99550000      -0.67690000       2.81030000
H       -1.27500000       0.90840000       2.46100000
H       -3.32510000      -0.62060000       0.82650000
H       -2.67240000       0.96390000       0.34190000
H       -1.45630000      -1.53360000      -0.77030000
