14
Properties=species:S:1:pos:R:3 gdb_28839=T pbc="F F F"
N        0.01740000       1.38680000      -0.12720000
C       -0.03780000       0.02680000      -0.02500000
C       -1.27150000      -0.61310000       0.02150000
N       -1.57370000      -1.92100000       0.04840000
C       -0.77830000      -2.94600000       0.00590000
C        0.68160000      -3.01750000      -0.07140000
O        1.26720000      -4.08970000      -0.17350000
C        1.50800000      -1.77980000       0.01980000
N        1.21920000      -0.52780000       0.02620000
H        0.90800000       1.81930000       0.05190000
H       -0.81260000       1.93970000      -0.00010000
H       -2.14180000       0.04280000       0.03850000
H       -1.24850000      -3.93000000       0.02870000
H        2.57130000      -2.02450000       0.08230000
