17
Properties=species:S:1:pos:R:3 gdb_69384=T pbc="F F F"
C        0.04670000       1.51780000      -0.01830000
C       -0.06270000       0.02520000       0.12240000
C       -1.37220000      -0.69910000      -0.21610000
C       -1.31000000      -1.95370000       0.61940000
C       -0.21010000      -1.99650000       1.39170000
C        0.10990000      -3.05040000       2.35550000
O        1.08490000      -3.04300000       3.07390000
C        0.64710000      -0.80110000       1.12120000
O        1.08690000      -0.74120000      -0.25490000
H        1.03160000       1.85970000       0.30820000
H       -0.08820000       1.81930000      -1.06310000
H       -0.71810000       2.02440000       0.57950000
H       -2.25270000      -0.09540000       0.04130000
H       -1.44400000      -0.92020000      -1.28800000
H       -2.06900000      -2.72870000       0.57970000
H       -0.63160000      -3.87950000       2.39590000
H        1.34850000      -0.42400000       1.85720000
