21
Properties=species:S:1:pos:R:3 gdb_61930=T pbc="F F F"
O       -0.37260000       1.32040000       0.03480000
C       -0.11160000      -0.08100000       0.04380000
C        0.66030000      -0.51450000      -1.20900000
C       -0.08240000      -0.16060000      -2.51260000
C        0.67610000      -0.50120000      -3.70910000
C        1.32470000      -0.79060000      -4.67920000
C        0.58540000      -0.53510000       1.31950000
C        1.61820000       0.32510000       2.00620000
C        0.26590000       0.10670000       2.64120000
H        0.47180000       1.77440000      -0.06460000
H       -1.11070000      -0.53750000       0.01780000
H        1.64890000      -0.03680000      -1.20750000
H        0.84140000      -1.59450000      -1.17120000
H       -1.04990000      -0.67980000      -2.53110000
H       -0.31730000       0.90980000      -2.50750000
H        1.88590000      -1.04120000      -5.54470000
H        0.77760000      -1.60500000       1.33850000
H        2.48550000      -0.16200000       2.43720000
H        1.82550000       1.31420000       1.61000000
H       -0.42280000       0.94350000       2.62210000
H        0.20080000      -0.52260000       3.52160000
