18
Properties=species:S:1:pos:R:3 gdb_7744=T pbc="F F F"
C        0.05000000       1.53440000       0.06070000
C       -0.01370000       0.03610000      -0.05700000
C        0.00830000      -0.59590000      -1.23310000
C       -0.04680000      -2.09160000      -1.39770000
C        0.37230000      -2.82960000      -0.11190000
C       -0.30210000      -2.22510000       1.10450000
O       -0.92420000      -2.87790000       1.90920000
C       -0.12880000      -0.71740000       1.25110000
H        0.90950000       1.84720000       0.66790000
H        0.13230000       2.01320000      -0.91840000
H       -0.84270000       1.93070000       0.56160000
H        0.06280000      -0.00690000      -2.14610000
H       -1.06200000      -2.39990000      -1.68720000
H        0.60060000      -2.40220000      -2.22600000
H        0.14580000      -3.89710000      -0.15230000
H        1.45670000      -2.71130000       0.02000000
H        0.77320000      -0.54440000       1.86060000
H       -0.96200000      -0.33980000       1.85570000
