19
Properties=species:S:1:pos:R:3 gdb_47804=T pbc="F F F"
O        0.00940000       0.10350000       0.70670000
C       -0.05670000       1.22240000       0.23990000
C       -1.41320000       1.86790000      -0.02280000
C       -1.68870000       2.20310000      -1.49500000
O       -0.90760000       3.27160000      -1.99540000
C        0.38450000       2.92260000      -2.44710000
C        1.42890000       2.75970000      -1.35670000
C        1.31520000       3.48590000      -0.06040000
C        1.20140000       1.96500000      -0.07160000
H       -2.16710000       1.16060000       0.33420000
H       -1.50730000       2.78990000       0.56290000
H       -1.55690000       1.30650000      -2.12080000
H       -2.73060000       2.52440000      -1.59150000
H        0.33880000       2.00850000      -3.06150000
H        0.69820000       3.74290000      -3.10320000
H        2.42770000       2.63620000      -1.76800000
H        2.20120000       3.90910000       0.39860000
H        0.40470000       4.05230000       0.09590000
H        2.06560000       1.41570000       0.28550000
