19
Properties=species:S:1:pos:R:3 gdb_35424=T pbc="F F F"
C       -0.25680000      -1.20610000      -0.45760000
C       -0.12720000      -0.03440000      -0.21750000
C        0.02400000       1.39210000       0.06420000
C       -0.68050000       1.78270000       1.41040000
C        0.33980000       1.87130000       2.54270000
C        1.46330000       0.81990000       2.42350000
C        2.06650000       1.89520000       1.49510000
C        1.53520000       1.81340000       0.06610000
O        1.29290000       2.91610000       2.19030000
H       -0.37530000      -2.23840000      -0.67620000
H       -0.47690000       1.92830000      -0.74920000
H       -1.14850000       2.76710000       1.30960000
H       -1.46900000       1.05960000       1.63860000
H       -0.12430000       2.04730000       3.51700000
H        2.02810000       0.72910000       3.35230000
H        1.22900000      -0.16310000       2.01490000
H        3.14120000       2.09250000       1.53580000
H        2.11620000       1.10910000      -0.53660000
H        1.64200000       2.80560000      -0.38340000
