21
Properties=species:S:1:pos:R:3 gdb_59005=T pbc="F F F"
C       -0.02560000       1.55210000       0.03920000
C       -0.02510000       0.01350000      -0.03660000
C       -1.46180000      -0.53720000       0.04050000
C        0.69760000      -0.48440000      -1.26150000
C        1.79850000      -1.24510000      -1.26590000
C        2.29230000      -1.58500000      -2.64360000
C        1.27710000      -0.88350000      -3.56010000
O        1.28600000      -0.88950000      -4.76240000
C        0.24540000      -0.17030000      -2.67120000
H        0.99290000       1.95100000       0.00910000
H       -0.58560000       1.99230000      -0.79300000
H       -0.49650000       1.89020000       0.96790000
H        0.52540000      -0.36440000       0.83490000
H       -2.07330000      -0.17430000      -0.79270000
H       -1.46910000      -1.63100000       0.01320000
H       -1.94630000      -0.21620000       0.96830000
H        2.29780000      -1.59090000      -0.36670000
H        3.30490000      -1.21860000      -2.85890000
H        2.30880000      -2.66150000      -2.86000000
H       -0.76140000      -0.53830000      -2.90640000
H        0.23600000       0.90210000      -2.90490000
