18
Properties=species:S:1:pos:R:3 gdb_35912=T pbc="F F F"
N       -0.01160000      -1.16710000       0.03480000
C        0.00840000      -0.01230000      -0.00250000
C       -0.00860000       1.45370000      -0.00030000
C       -0.92290000       1.99290000       1.13910000
N       -0.79500000       3.43120000       1.29670000
C        0.57180000       3.80300000       1.67020000
C        1.67040000       3.15110000       0.82010000
C        2.19320000       1.80330000       1.18330000
N        1.36930000       1.96800000      -0.01150000
H       -0.45680000       1.77770000      -0.94980000
H       -1.96020000       1.72910000       0.91320000
H       -0.66710000       1.51390000       2.09140000
H       -1.05600000       3.89530000       0.43080000
H        0.65960000       4.89050000       1.60550000
H        0.70850000       3.53750000       2.72610000
H        2.34570000       3.84280000       0.32100000
H        3.22680000       1.53050000       0.99030000
H        1.75890000       1.32620000       2.06010000
