15
Properties=species:S:1:pos:R:3 gdb_99443=T pbc="F F F"
N       -0.03820000       1.48590000       0.02070000
C        0.02240000       0.03240000      -0.01420000
C       -1.42360000      -0.54960000      -0.00600000
C       -2.15150000      -0.09200000      -1.20210000
N       -2.68940000       0.30100000      -2.14600000
C       -1.42680000      -2.00540000       0.09160000
C       -1.40160000      -3.20900000       0.20000000
C       -1.37360000      -4.56440000       0.31560000
C       -1.34850000      -5.76660000       0.42030000
H        0.87830000       1.86920000       0.22330000
H       -0.31820000       1.85220000      -0.88450000
H        0.55910000      -0.40060000      -0.87180000
H        0.51300000      -0.32470000       0.89540000
H       -1.93260000      -0.11670000       0.86550000
H       -1.32880000      -6.82480000       0.50860000
