16
Properties=species:S:1:pos:R:3 gdb_112387=T pbc="F F F"
C       -0.01780000       1.36560000      -0.11530000
O       -0.02490000      -0.05540000      -0.05280000
C       -1.28210000      -0.60690000       0.04160000
O       -2.00830000      -0.49560000      -1.20340000
C       -2.13180000      -1.72120000      -1.78970000
N       -2.63030000      -1.99110000      -2.91510000
N       -1.62900000      -2.66580000      -0.90620000
C       -1.15450000      -2.11290000       0.26410000
N       -0.69560000      -2.62270000       1.32730000
H        1.02890000       1.67260000      -0.10040000
H       -0.49200000       1.72740000      -1.03450000
H       -0.53490000       1.79930000       0.75210000
H       -1.88890000      -0.11180000       0.81060000
H       -2.93510000      -1.14170000      -3.38490000
H       -1.66080000      -3.64750000      -1.12530000
H       -0.66810000      -3.64250000       1.28530000
