16
Properties=species:S:1:pos:R:3 gdb_19720=T pbc="F F F"
C       -0.06380000       1.49640000       0.11250000
C        1.28920000       0.83100000      -0.01980000
C        0.02120000      -0.00090000       0.02720000
C        0.05870000      -0.63180000      -1.37970000
O       -0.22960000       0.35030000      -2.38070000
C        1.00600000       1.07860000      -2.53190000
C        1.85160000       0.46240000      -1.40870000
O        1.43470000      -0.91880000      -1.56100000
H       -0.29120000       1.92110000       1.08560000
H       -0.50030000       2.03240000      -0.72070000
H        1.97900000       0.86340000       0.81490000
H       -0.23420000      -0.63100000       0.87110000
H       -0.55560000      -1.51590000      -1.54330000
H        1.43840000       0.87770000      -3.51820000
H        0.82820000       2.15210000      -2.42000000
H        2.93100000       0.54430000      -1.51860000
