14
Properties=species:S:1:pos:R:3 gdb_45949=T pbc="F F F"
O        0.04650000       0.03010000      -0.15080000
C        0.02660000       1.23040000      -0.03870000
C       -1.20540000       2.12660000       0.05530000
O       -0.72440000       3.47640000       0.05210000
C        0.64300000       3.54860000      -0.02510000
O        1.22930000       4.58680000      -0.05380000
C        1.18720000       2.15390000      -0.01300000
C        2.44300000       1.78620000       0.73070000
N        2.44010000       1.81840000      -0.71420000
H       -1.87430000       1.96890000      -0.79670000
H       -1.76290000       1.93620000       0.97860000
H        2.97850000       2.60170000       1.20760000
H        2.43580000       0.82970000       1.24660000
H        2.32770000       0.86850000      -1.07390000
