21
Properties=species:S:1:pos:R:3 gdb_96015=T pbc="F F F"
O       -0.14890000       1.47420000       0.33620000
C       -0.07610000       0.08750000       0.03000000
C        0.64110000      -0.70050000       1.13330000
C       -0.45590000      -0.78830000       2.20110000
O       -1.68830000      -0.86080000       1.48950000
C       -1.49470000      -0.50410000       0.11260000
C       -2.60290000       0.39810000      -0.35590000
C       -3.02590000       0.36160000      -1.80460000
C       -3.93120000      -0.19960000      -0.73810000
H        0.74870000       1.81870000       0.36780000
H        0.36020000      -0.07110000      -0.96530000
H        0.91120000      -1.69680000       0.76640000
H        1.55310000      -0.20810000       1.48410000
H       -0.36190000      -1.67150000       2.84230000
H       -0.44760000       0.10540000       2.84040000
H       -1.51040000      -1.42600000      -0.49320000
H       -2.61740000       1.36420000       0.13370000
H       -3.29700000       1.29800000      -2.27870000
H       -2.52730000      -0.33980000      -2.46620000
H       -4.03760000      -1.27770000      -0.67690000
H       -4.82980000       0.34980000      -0.48100000
