19
Properties=species:S:1:pos:R:3 gdb_96977=T pbc="F F F"
C       -0.21020000       1.43490000       0.11330000
N       -0.09700000      -0.01110000       0.05950000
C        0.63990000      -0.60230000       0.89110000
N        0.82860000      -1.98130000       0.95700000
C        1.93840000      -2.30640000       1.81350000
C        1.87210000      -3.61780000       2.55080000
C        3.26240000      -1.61530000       1.48880000
C        2.26530000      -0.97870000       2.42660000
O        1.39130000      -0.01060000       1.88660000
H       -0.24800000       1.82990000      -0.90770000
H       -1.14950000       1.72600000       0.60170000
H        0.61230000       1.92590000       0.64840000
H        0.68850000      -2.47710000       0.08950000
H        1.97580000      -4.46370000       1.86160000
H        2.68080000      -3.69150000       3.28350000
H        0.91560000      -3.71870000       3.07240000
H        4.16200000      -2.02120000       1.93980000
H        3.39470000      -1.17390000       0.50670000
H        2.47470000      -0.81780000       3.47670000
