20
Properties=species:S:1:pos:R:3 gdb_110275=T pbc="F F F"
C       -0.12340000       1.57600000      -0.03760000
C        0.05450000       0.05580000       0.02930000
C        0.76180000      -0.51190000      -1.20730000
C        0.83870000      -2.05230000      -1.28870000
C       -0.06900000      -2.10890000      -2.52270000
N        1.32620000      -2.53300000      -2.54700000
C        2.34500000      -1.85340000      -3.34220000
C       -0.19050000      -0.60080000      -2.43600000
O       -0.91780000       0.19700000      -2.95950000
H        0.84670000       2.08270000      -0.08920000
H       -0.69810000       1.85840000      -0.92330000
H       -0.64720000       1.94740000       0.84820000
H        0.63700000      -0.21700000       0.91860000
H       -0.92390000      -0.42860000       0.14360000
H        1.71320000       0.00710000      -1.36410000
H        0.81520000      -2.72620000      -0.43850000
H       -0.83780000      -2.81290000      -2.82280000
H        2.28660000      -0.75770000      -3.35220000
H        3.32840000      -2.14420000      -2.96050000
H        2.26250000      -2.20790000      -4.37330000
