19
Properties=species:S:1:pos:R:3 gdb_22108=T pbc="F F F"
C       -1.26200000       0.81970000      -0.31130000
C        0.10910000       0.16180000      -0.06490000
C        0.49970000      -0.76090000      -1.19250000
C        0.23830000      -2.23800000      -1.05050000
C        1.24130000      -2.93260000      -0.11050000
N        2.54340000      -2.71600000      -0.44520000
O        0.89540000      -3.62370000       0.82560000
N        1.05980000      -0.39530000      -2.28470000
O        1.29020000       0.99160000      -2.32170000
H       -1.23650000       1.42360000      -1.22140000
H       -2.05120000       0.06890000      -0.41910000
H       -1.52910000       1.46910000       0.52740000
H        0.86970000       0.94020000       0.03810000
H        0.08360000      -0.41170000       0.86730000
H       -0.75370000      -2.42030000      -0.63110000
H        0.29980000      -2.71110000      -2.03500000
H        2.79410000      -2.10950000      -1.20770000
H        3.26480000      -3.14210000       0.11170000
H        1.68640000       1.10730000      -3.19160000
