18
Properties=species:S:1:pos:R:3 gdb_47851=T pbc="F F F"
O       -0.03590000      -0.14040000      -0.12740000
C       -0.00360000       1.07530000      -0.07960000
C       -1.35080000       1.81470000      -0.03050000
O       -1.38480000       3.21450000      -0.10200000
C       -1.31910000       3.88170000       1.14280000
C        0.02890000       3.66490000       1.85390000
C        1.17910000       3.92670000       0.93200000
C        1.63780000       3.05370000       0.03430000
N        1.20510000       1.73300000      -0.17540000
H       -1.88740000       1.43790000      -0.90760000
H       -1.88390000       1.43130000       0.85200000
H       -1.45960000       4.94150000       0.91020000
H       -2.14680000       3.56230000       1.79590000
H        0.07060000       4.31630000       2.73320000
H        0.07590000       2.63210000       2.22330000
H        1.63070000       4.91350000       0.93640000
H        2.47980000       3.31720000      -0.59960000
H        1.93710000       1.06490000      -0.38310000
