19
Properties=species:S:1:pos:R:3 gdb_94829=T pbc="F F F"
O       -0.09100000       1.42840000       0.01990000
C        0.02990000       0.00860000      -0.00830000
C       -1.39920000      -0.54230000       0.00350000
O       -1.39780000      -1.93900000      -0.24330000
C       -0.92390000      -2.26690000      -1.52230000
C       -1.10210000      -3.71470000      -1.88250000
C       -1.96820000      -2.67580000      -2.55250000
C        0.27310000      -1.51440000      -1.95190000
C        0.73610000      -0.48190000      -1.24870000
H        0.79330000       1.80320000       0.07690000
H        0.55820000      -0.34440000       0.89270000
H       -1.86880000      -0.39700000       0.97870000
H       -1.98470000       0.00030000      -0.75290000
H       -0.32260000      -4.20090000      -2.45870000
H       -1.56150000      -4.33240000      -1.11930000
H       -3.00070000      -2.60440000      -2.23090000
H       -1.79150000      -2.43900000      -3.59590000
H        0.75450000      -1.83930000      -2.87020000
H        1.62750000       0.05550000      -1.56430000
