16
Properties=species:S:1:pos:R:3 gdb_51972=T pbc="F F F"
O        0.61840000      -0.15930000      -0.69620000
C        0.71310000       1.02800000      -0.85450000
C        1.72660000       1.90550000      -0.13310000
N        2.18640000       3.00520000      -0.95070000
C        1.86600000       4.29690000      -0.66740000
O        1.16610000       4.63360000       0.26730000
C        2.45250000       5.35970000      -1.61800000
C        3.28070000       4.87310000      -2.71070000
C        3.96180000       4.44320000      -3.60400000
H        0.04730000       1.58890000      -1.54990000
H        1.22720000       2.35320000       0.73570000
H        2.55270000       1.28210000       0.22280000
H        2.79180000       2.82880000      -1.73850000
H        1.59950000       5.92980000      -2.00300000
H        3.01580000       6.05560000      -0.98600000
H        4.56640000       4.08460000      -4.40060000
