15
Properties=species:S:1:pos:R:3 gdb_46238=T pbc="F F F"
O       -0.02340000       0.01410000       0.16600000
C       -0.01220000       1.20920000       0.07760000
N       -0.99500000       2.17280000       0.00000000
C       -0.08870000       3.32890000       0.00010000
C        1.05700000       2.30210000       0.03790000
C        2.35820000       2.30350000       0.76460000
C        2.34740000       2.30520000      -0.75510000
C        2.76570000       1.14510000      -1.49470000
N        3.12890000       0.23560000      -2.10920000
H       -1.99780000       2.10860000       0.08330000
H       -0.14500000       3.94380000      -0.90360000
H       -0.16710000       3.96310000       0.88950000
H        2.68790000       3.21370000       1.25290000
H        2.64000000       1.37890000       1.25640000
H        2.60110000       3.24500000      -1.23650000
