19
Properties=species:S:1:pos:R:3 gdb_126933=T pbc="F F F"
C       -0.02960000       1.53540000       0.00980000
C       -0.04100000       0.01370000      -0.07800000
N        0.80040000      -0.45160000      -1.17310000
C        0.85780000      -1.82380000      -1.39800000
C        0.43690000      -2.86580000      -0.62790000
O        0.77080000      -4.03910000      -1.21410000
N        1.41470000      -3.77680000      -2.40880000
C        1.47310000      -2.47100000      -2.51980000
C        2.12120000      -1.82300000      -3.69880000
H        0.98950000       1.90920000       0.14390000
H       -0.44150000       1.98670000      -0.90040000
H       -0.63880000       1.87600000       0.85130000
H        0.35730000      -0.41490000       0.85050000
H       -1.07760000      -0.35430000      -0.17370000
H        0.65400000       0.07660000      -2.02410000
H       -0.07470000      -2.93840000       0.31710000
H        1.40090000      -1.23070000      -4.27620000
H        2.92150000      -1.14580000      -3.38110000
H        2.54340000      -2.58350000      -4.35800000
