22
Properties=species:S:1:pos:R:3 gdb_10359=T pbc="F F F"
C        0.62120000      -0.06150000       1.45270000
C        0.09390000      -0.13570000       0.01660000
C       -1.33480000      -0.70280000      -0.10990000
C       -1.95380000      -0.29300000      -1.45090000
O       -2.12950000       1.12100000      -1.42820000
C       -1.36940000      -2.22800000       0.09500000
C       -2.76880000      -2.80170000       0.33370000
O       -0.76120000      -2.81380000      -1.05900000
H        1.63190000       0.35840000       1.47640000
H       -0.01690000       0.57680000       2.07450000
H        0.66930000      -1.04590000       1.93100000
H        0.09130000       0.86990000      -0.41440000
H        0.76400000      -0.74730000      -0.59920000
H       -1.95730000      -0.25270000       0.67550000
H       -1.29080000      -0.60140000      -2.27010000
H       -2.91970000      -0.79600000      -1.60230000
H       -2.36660000       1.40520000      -2.31510000
H       -0.76110000      -2.45770000       0.98420000
H       -2.71250000      -3.88250000       0.51030000
H       -3.23110000      -2.34810000       1.21650000
H       -3.42470000      -2.63810000      -0.52550000
H       -0.73780000      -3.76710000      -0.93240000
