20
Properties=species:S:1:pos:R:3 gdb_65082=T pbc="F F F"
C       -0.09470000       1.41410000      -0.36860000
C       -0.02430000      -0.06890000      -0.07230000
C        1.14730000      -0.85600000      -0.53850000
N        0.96550000      -0.57810000       0.89810000
C       -1.35060000      -0.74380000       0.04220000
C       -1.70260000      -2.24480000       0.19840000
C       -2.99330000      -1.44570000      -0.09290000
C       -2.56890000      -0.38080000       0.94070000
O       -2.26380000      -0.69080000      -1.13900000
H        0.90670000       1.83280000      -0.50990000
H       -0.67720000       1.59550000      -1.27660000
H       -0.57910000       1.95510000       0.45200000
H        1.03130000      -1.89820000      -0.81940000
H        1.92360000      -0.32270000      -1.08120000
H        1.57860000       0.18230000       1.18350000
H       -1.36630000      -2.88640000      -0.61710000
H       -1.58040000      -2.69740000       1.18440000
H       -3.98940000      -1.80880000      -0.34370000
H       -2.52770000      -0.66610000       1.99460000
H       -2.98960000       0.61240000       0.77860000
