19
Properties=species:S:1:pos:R:3 gdb_74272=T pbc="F F F"
C        0.00070000       1.52430000       0.08090000
C       -0.03190000       0.03280000      -0.01830000
C       -0.08550000      -0.73110000      -1.11410000
C       -0.05580000      -2.22860000      -0.81870000
C       -1.27380000      -2.97650000      -1.34670000
O        1.09210000      -2.84570000      -1.39330000
C        0.02250000      -2.24310000       0.71860000
O        1.25070000      -1.68450000       1.20060000
C        0.05140000      -0.85890000       1.18970000
H        0.92300000       1.86690000       0.56640000
H       -0.06180000       1.99220000      -0.90480000
H       -0.83160000       1.90100000       0.68870000
H       -0.06940000      -0.36890000      -2.13710000
H       -1.32860000      -2.88710000      -2.43520000
H       -1.19810000      -4.03890000      -1.09420000
H       -2.19530000      -2.57250000      -0.91770000
H        1.84890000      -2.47390000      -0.92100000
H       -0.37330000      -3.08050000       1.28750000
H       -0.28930000      -0.54230000       2.17130000
