20
Properties=species:S:1:pos:R:3 gdb_68310=T pbc="F F F"
O       -0.09990000       1.13760000      -0.01630000
C        0.09340000      -0.23160000       0.05270000
C        0.61160000      -1.23370000      -1.01020000
N        0.24060000      -2.14270000       0.16900000
C        0.92740000      -1.08430000       1.04500000
C       -1.03660000      -1.25680000       0.27490000
C       -1.86650000      -1.32030000       1.51940000
C       -3.33360000      -0.96310000       1.42440000
C       -2.92360000      -2.39460000       1.63310000
H        0.75160000       1.56420000      -0.16360000
H        0.00460000      -1.40140000      -1.90370000
H        1.68110000      -1.24180000      -1.23680000
H        2.01540000      -1.07890000       0.93290000
H        0.64510000      -1.11570000       2.09700000
H       -1.67840000      -1.42310000      -0.59840000
H       -1.38180000      -1.03620000       2.44640000
H       -3.77750000      -0.42230000       2.25230000
H       -3.72170000      -0.67970000       0.45150000
H       -3.02840000      -3.08310000       0.80150000
H       -3.08670000      -2.84540000       2.60540000
