25
Properties=species:S:1:pos:R:3 gdb_68592=T pbc="F F F"
C        0.10030000       1.47630000      -0.06440000
C        0.02990000      -0.03410000      -0.05610000
C        0.39340000      -0.90170000      -1.30170000
C       -0.42680000      -1.98510000      -0.54540000
C        0.50780000      -2.25620000       0.65070000
C        0.85360000      -0.77620000       1.02400000
C       -1.34730000      -0.82140000      -0.02600000
C       -2.07710000      -0.98570000       1.31140000
C       -2.38300000      -0.33490000      -1.05000000
H        1.13280000       1.82070000      -0.19710000
H       -0.49860000       1.90670000      -0.87390000
H       -0.26480000       1.89620000       0.88070000
H       -0.05350000      -0.55900000      -2.23320000
H        1.45540000      -1.10940000      -1.46740000
H       -0.84950000      -2.85100000      -1.05910000
H        0.02430000      -2.80440000       1.46310000
H        1.39080000      -2.82750000       0.35010000
H        1.92130000      -0.55670000       0.92420000
H        0.55960000      -0.50660000       2.04220000
H       -1.44230000      -1.34050000       2.12390000
H       -2.51210000      -0.03030000       1.62820000
H       -2.90580000      -1.69620000       1.20840000
H       -3.19470000      -1.06620000      -1.13890000
H       -2.83540000       0.60740000      -0.71980000
H       -1.98230000      -0.17120000      -2.05120000
