20
Properties=species:S:1:pos:R:3 gdb_62227=T pbc="F F F"
C       -0.05830000       1.58800000       0.24870000
C        0.02430000       0.06110000       0.05180000
C        0.73210000      -0.36200000      -1.25910000
C       -0.03100000       0.03690000      -2.52690000
C        0.66900000      -0.45980000      -3.80460000
C       -0.14330000      -0.15270000      -5.04300000
O        0.24670000       0.48750000      -5.98400000
C        0.70370000      -0.55620000       1.19670000
N        1.25070000      -1.04050000       2.09240000
H        0.94120000       2.03240000       0.24280000
H       -0.64680000       2.04590000      -0.54960000
H       -0.53300000       1.83050000       1.20240000
H       -0.99640000      -0.34460000       0.03650000
H        1.73860000       0.07300000      -1.27380000
H        0.86550000      -1.44960000      -1.24700000
H       -1.04910000      -0.37390000      -2.48520000
H       -0.13740000       1.12600000      -2.58270000
H        1.66150000      -0.01430000      -3.91840000
H        0.78880000      -1.55160000      -3.74840000
H       -1.17810000      -0.57110000      -5.02470000
