7
Properties=species:S:1:pos:R:3 gdb_325=T pbc="F F F"
O       -0.07790000       0.00620000       0.00120000
C       -0.01680000       1.19990000       0.00690000
C        1.35360000       1.92440000      -0.00060000
O        2.40140000       1.34160000      -0.01210000
C        1.25520000       3.39470000       0.00790000
N        1.11410000       4.54280000       0.01490000
H       -0.90360000       1.86630000       0.01760000
