19
Properties=species:S:1:pos:R:3 gdb_90655=T pbc="F F F"
C       -0.09100000       1.47070000      -0.07140000
C        0.01740000      -0.04270000       0.06180000
C        1.07510000      -0.70590000      -0.88450000
C        1.87890000      -1.15030000       0.34340000
C        0.84800000      -0.50990000       1.27170000
C        0.99130000      -2.01900000       1.21710000
O        0.00140000      -2.82410000       0.67650000
C        1.66800000      -2.62520000       2.38130000
O        1.35990000      -3.72130000       2.79660000
H        0.89420000       1.94720000      -0.00960000
H       -0.53710000       1.74380000      -1.03360000
H       -0.71750000       1.89420000       0.72120000
H       -0.97390000      -0.50150000       0.01560000
H        0.72390000      -1.50980000      -1.53470000
H        1.60850000       0.03810000      -1.48090000
H        2.96000000      -1.18560000       0.42110000
H        0.98690000       0.04750000       2.19270000
H        0.00720000      -3.62540000       1.22470000
H        2.47060000      -2.02230000       2.85230000
