15
Properties=species:S:1:pos:R:3 gdb_2288=T pbc="F F F"
C        0.18690000       1.58740000      -0.16420000
C        0.02730000       0.14390000      -0.07450000
C       -0.11290000      -1.05030000      -0.00210000
C       -0.27110000      -2.49010000       0.08720000
C        0.28940000      -3.20820000       1.34730000
C       -1.15890000      -3.69340000       1.54120000
O       -1.62270000      -2.91520000       0.41780000
H        0.87400000       1.96180000       0.60280000
H        0.58160000       1.88660000      -1.14130000
H       -0.77350000       2.09580000      -0.02430000
H        0.05090000      -2.95900000      -0.85290000
H        1.03990000      -3.97540000       1.15400000
H        0.65120000      -2.52480000       2.11520000
H       -1.31670000      -4.76810000       1.38520000
H       -1.65000000      -3.39520000       2.47460000
