22
Properties=species:S:1:pos:R:3 gdb_87144=T pbc="F F F"
C       -0.20860000       1.60720000       0.40610000
C       -0.22740000       0.09650000       0.37300000
N        0.82080000      -0.59320000      -0.40310000
C        0.75880000      -0.79350000       1.06000000
C        1.91760000      -0.19520000       1.83360000
C        0.26180000      -2.15080000       1.52870000
O       -0.80440000      -2.66920000       0.76450000
C        1.21460000      -3.22550000       1.97380000
C        0.29380000      -2.56380000       2.97990000
H        0.80860000       2.00130000       0.43500000
H       -0.69160000       2.00880000      -0.49150000
H       -0.75370000       1.98770000       1.27740000
H       -1.22960000      -0.31570000       0.26940000
H        0.40820000      -1.40510000      -0.85870000
H        2.27670000       0.70510000       1.33500000
H        1.62900000       0.07080000       2.85570000
H        2.76310000      -0.88800000       1.88600000
H       -1.62130000      -2.27450000       1.08760000
H        0.96640000      -4.23130000       1.65690000
H        2.27480000      -3.01100000       2.02410000
H        0.72720000      -1.89300000       3.71210000
H       -0.55050000      -3.14290000       3.33790000
