25
Properties=species:S:1:pos:R:3 gdb_118952=T pbc="F F F"
C       -0.12050000       1.54840000      -0.12310000
C        0.04910000       0.04400000       0.03180000
C        1.02820000      -0.71670000      -0.90160000
C        1.41050000      -1.62710000       0.29340000
C        0.80380000      -0.56750000       1.27200000
C        1.88840000       0.36110000       1.83020000
C       -0.11870000      -1.10090000       2.37210000
C        0.56850000      -1.93170000       3.45150000
O       -0.44890000      -2.48100000       4.27940000
H        0.83970000       2.07310000      -0.09450000
H       -0.59500000       1.78520000      -1.08230000
H       -0.75420000       1.96630000       0.66740000
H       -0.93760000      -0.43160000      -0.02590000
H        0.60670000      -1.19620000      -1.78860000
H        1.86200000      -0.08380000      -1.22160000
H        0.83680000      -2.55910000       0.29760000
H        2.46870000      -1.87240000       0.42130000
H        2.51860000       0.76920000       1.03370000
H        1.45360000       1.20630000       2.37580000
H        2.55030000      -0.17460000       2.51850000
H       -0.64610000      -0.26770000       2.85550000
H       -0.89060000      -1.73470000       1.91830000
H        1.16990000      -2.72790000       2.98210000
H        1.25710000      -1.30820000       4.04120000
H       -0.02470000      -2.97700000       4.98550000
