17
Properties=species:S:1:pos:R:3 gdb_25657=T pbc="F F F"
C       -0.09600000       1.45870000       0.03960000
C       -0.02270000       0.00670000       0.01610000
C        0.04790000      -1.19890000      -0.00370000
C        0.13070000      -2.60280000      -0.02660000
C        1.19390000      -3.48050000      -0.09010000
N        0.76050000      -4.77900000      -0.08660000
C       -0.55650000      -4.72250000      -0.02190000
C       -1.48070000      -5.89300000       0.00760000
N       -0.98590000      -3.42910000       0.01640000
H        0.90720000       1.89820000       0.06700000
H       -0.60430000       1.85160000      -0.84850000
H       -0.63840000       1.81980000       0.92100000
H        2.24200000      -3.22870000      -0.13770000
H       -2.08140000      -5.91600000       0.92420000
H       -2.17350000      -5.88770000      -0.84190000
H       -0.88570000      -6.80580000      -0.03790000
H       -1.93800000      -3.10680000       0.06690000
