18
Properties=species:S:1:pos:R:3 gdb_96624=T pbc="F F F"
C       -0.01450000       1.44560000      -0.06930000
N        0.06460000      -0.00000000      -0.16710000
C        0.64050000      -0.61520000       0.79520000
N        1.21900000      -0.08560000       1.91630000
C        0.75010000      -2.13160000       0.77830000
O        1.13330000      -2.73120000       1.76810000
N        0.47730000      -2.74710000      -0.41470000
C       -0.73130000      -2.72180000      -1.19950000
C       -0.23020000      -3.99420000      -0.57130000
H        0.98020000       1.90970000       0.02030000
H       -0.49630000       1.84880000      -0.96320000
H       -0.60660000       1.77460000       0.80140000
H        0.97270000       0.84380000       2.20970000
H        1.45140000      -0.76040000       2.63060000
H       -1.60010000      -2.24020000      -0.76350000
H       -0.59890000      -2.55090000      -2.26360000
H        0.25930000      -4.74400000      -1.18600000
H       -0.74910000      -4.37870000       0.30290000
