16
Properties=species:S:1:pos:R:3 gdb_45908=T pbc="F F F"
O       -0.06820000       0.26800000      -1.15480000
C       -0.02790000       1.13650000      -0.33120000
O       -1.22330000       1.55950000       0.21300000
C       -1.36260000       2.43270000       1.27090000
N       -0.88320000       2.33210000       2.42650000
C        0.02160000       1.23900000       2.74210000
C        1.46960000       1.70030000       2.56050000
C        1.87030000       2.04900000       1.15820000
C        1.24250000       1.84690000      -0.00280000
H       -2.05390000       3.23290000       1.01490000
H       -0.13260000       0.97290000       3.79170000
H       -0.17000000       0.33820000       2.14250000
H        1.64470000       2.57680000       3.19730000
H        2.15100000       0.92240000       2.93300000
H        2.85650000       2.50530000       1.08620000
H        1.77230000       2.09630000      -0.91800000
