17
Properties=species:S:1:pos:R:3 gdb_40873=T pbc="F F F"
C       -0.00680000       1.50280000      -0.14470000
O        1.40940000       1.52780000       0.14990000
C        1.42260000       0.11840000       0.45330000
C       -0.03740000      -0.02520000      -0.01820000
C       -1.03650000      -0.88970000       0.73190000
C       -2.06040000      -1.30040000      -0.34050000
O       -1.71710000      -0.63250000      -1.55710000
C       -0.33400000      -0.94390000      -1.22800000
C       -0.79180000      -2.06560000      -0.22260000
H       -0.59170000       2.04400000       0.61130000
H       -0.23880000       1.90930000      -1.13580000
H        2.18470000      -0.42470000      -0.12100000
H        1.58390000      -0.07020000       1.52350000
H       -1.24760000      -0.91550000       1.79370000
H       -3.09370000      -1.55560000      -0.14810000
H        0.32230000      -1.01480000      -2.09350000
H       -0.54400000      -3.10580000      -0.06840000
