17
Properties=species:S:1:pos:R:3 gdb_111728=T pbc="F F F"
O        0.27090000       0.79460000      -0.88810000
C        0.01230000       0.04600000       0.27930000
C       -1.38620000      -0.57990000       0.27850000
C       -2.00020000      -1.12020000      -0.96360000
N       -0.93510000      -1.66990000      -1.82700000
C       -0.65630000      -2.73880000      -0.80830000
C       -1.64120000      -2.08950000       0.18040000
C       -2.45930000      -2.80100000       1.09970000
N       -3.12450000      -3.38850000       1.84410000
H        0.17700000       0.16480000      -1.61830000
H        0.77390000      -0.73180000       0.44100000
H        0.09000000       0.73920000       1.12200000
H       -2.11850000      -0.10590000       0.92590000
H       -2.96870000      -0.82780000      -1.35000000
H       -1.31110000      -2.07200000      -2.67820000
H       -1.00810000      -3.72280000      -1.12640000
H        0.39220000      -2.80670000      -0.50380000
