21
Properties=species:S:1:pos:R:3 gdb_73895=T pbc="F F F"
C        0.24440000       1.54400000       0.26230000
C        0.07110000       0.07030000       0.06620000
C       -1.05450000      -0.62580000      -0.13780000
C       -2.46660000      -0.09560000      -0.20670000
C       -3.12920000      -0.39400000      -1.47720000
C       -3.66120000      -0.64720000      -2.52490000
C       -0.79200000      -2.11420000      -0.23500000
C        0.74300000      -2.19910000      -0.39620000
C        1.27510000      -0.84950000       0.13910000
H        0.92930000       1.95920000      -0.48810000
H       -0.69530000       2.09800000       0.19810000
H        0.69310000       1.75840000       1.24130000
H       -3.06120000      -0.53720000       0.60760000
H       -2.48270000       0.98650000      -0.03750000
H       -4.13560000      -0.86520000      -3.44920000
H       -1.13800000      -2.62190000       0.67850000
H       -1.33250000      -2.57970000      -1.06630000
H        1.17880000      -3.06210000       0.11330000
H        0.99140000      -2.29140000      -1.45820000
H        2.12600000      -0.47080000      -0.44060000
H        1.62900000      -0.92820000       1.17820000
