25
Properties=species:S:1:pos:R:3 gdb_123135=T pbc="F F F"
C       -0.18640000       1.54720000       0.15510000
C       -0.02490000       0.03990000      -0.01260000
C        0.84820000      -0.56900000       1.08960000
O       -1.33900000      -0.50530000      -0.01780000
C       -1.45050000      -1.81990000      -0.51990000
C       -2.93050000      -2.16020000      -0.64720000
C       -3.16370000      -3.57750000      -1.17580000
C       -4.64140000      -3.92150000      -1.30620000
O       -4.74050000      -5.24870000      -1.80130000
H        0.78620000       2.04730000       0.12620000
H       -0.81440000       1.95420000      -0.64170000
H       -0.66300000       1.77250000       1.11460000
H        0.44610000      -0.16370000      -0.99020000
H        0.39170000      -0.39790000       2.07010000
H        0.98140000      -1.64630000       0.95630000
H        1.84230000      -0.11050000       1.08620000
H       -0.95530000      -1.89660000      -1.50370000
H       -0.95710000      -2.54750000       0.14460000
H       -3.39910000      -2.03880000       0.33720000
H       -3.40040000      -1.42250000      -1.30910000
H       -2.69300000      -3.70100000      -2.15910000
H       -2.69550000      -4.31460000      -0.51180000
H       -5.13310000      -3.82420000      -0.32430000
H       -5.13080000      -3.20460000      -1.98610000
H       -5.67250000      -5.46920000      -1.88540000
