19
Properties=species:S:1:pos:R:3 gdb_32750=T pbc="F F F"
C       -0.80050000       0.92620000       0.63470000
C        0.03920000       0.06870000      -0.29970000
O       -0.75460000      -0.84270000      -1.08560000
C       -1.25210000      -1.91490000      -0.42790000
C       -2.51170000      -2.22140000       0.02090000
C       -3.74690000      -1.38530000      -0.04710000
N       -2.50860000      -3.49560000       0.56000000
C       -1.28250000      -3.94210000       0.43860000
N       -0.46550000      -3.02350000      -0.15320000
H       -0.15430000       1.61050000       1.19420000
H       -1.52470000       1.51900000       0.06900000
H       -1.34340000       0.30480000       1.35220000
H        0.56070000       0.68550000      -1.03660000
H        0.79390000      -0.49600000       0.26430000
H       -3.55290000      -0.45790000      -0.59190000
H       -4.55280000      -1.92260000      -0.55800000
H       -4.11520000      -1.12800000       0.95240000
H       -0.92470000      -4.90970000       0.75840000
H        0.49650000      -3.14090000      -0.42360000
