15
Properties=species:S:1:pos:R:3 gdb_123300=T pbc="F F F"
C        0.04210000      -1.25440000      -0.08680000
C        0.00540000      -0.05160000      -0.03080000
C       -0.02600000       1.35690000       0.03360000
C       -1.09890000       2.23120000       0.18620000
C       -2.52280000       2.74040000       0.36140000
C       -1.86550000       4.18240000       0.35360000
N       -0.59180000       3.46660000       0.18520000
N        0.73850000       3.55790000       0.04660000
C        1.08220000       2.26720000      -0.04580000
H        0.07260000      -2.31420000      -0.13600000
H       -3.20180000       2.54800000      -0.47170000
H       -3.01210000       2.47060000       1.29940000
H       -2.12990000       4.82080000      -0.49240000
H       -1.93800000       4.74210000       1.28900000
H        2.12030000       1.99620000      -0.16930000
