16
Properties=species:S:1:pos:R:3 gdb_29610=T pbc="F F F"
N        0.31910000       1.37390000       0.25330000
C        0.10420000      -0.00190000       0.07410000
C       -1.04880000      -0.73600000       0.25870000
N       -0.74530000      -2.06480000       0.03600000
C        0.57420000      -2.20410000      -0.28970000
C        1.11920000      -0.93880000      -0.26980000
O        2.40850000      -0.56720000      -0.59030000
C        3.39740000      -0.96500000       0.25170000
N        4.59820000      -0.71740000      -0.03840000
H        1.14860000       1.67920000      -0.24130000
H       -0.46840000       1.93870000      -0.03730000
H       -2.04310000      -0.42740000       0.53530000
H       -1.40360000      -2.81940000       0.09720000
H        1.01360000      -3.15740000      -0.53030000
H        3.01020000      -1.48670000       1.13530000
H        5.20940000      -1.06910000       0.69570000
