15
Properties=species:S:1:pos:R:3 gdb_49053=T pbc="F F F"
O       -0.85480000       1.14230000       0.57190000
C        0.12590000       0.93710000      -0.10170000
C        1.31820000       1.83200000      -0.08340000
N        1.28030000       3.02450000       0.78160000
C        1.51610000       3.92660000      -0.37720000
C        1.77950000       2.71010000      -1.30490000
N        3.07970000       2.05630000      -1.20860000
C        2.77740000       1.24480000      -0.13260000
O        3.41490000       0.46020000       0.50650000
H        0.19630000       0.06320000      -0.78250000
H        0.36900000       3.12520000       1.21750000
H        0.62870000       4.48510000      -0.69650000
H        2.34960000       4.62310000      -0.24140000
H        1.32400000       2.69250000      -2.29510000
H        3.98200000       2.33590000      -1.56840000
