20
Properties=species:S:1:pos:R:3 gdb_92170=T pbc="F F F"
C       -0.06180000       1.48650000      -0.03980000
N       -0.02190000       0.03700000       0.04780000
C       -1.36710000      -0.56830000       0.01700000
C       -1.23770000      -1.77980000       0.92680000
O       -0.19700000      -2.63850000       0.35940000
C        0.73640000      -2.04340000       1.25500000
C       -0.30550000      -1.33270000       2.07870000
C        0.65220000      -0.52270000       1.22190000
C        1.79800000       0.23640000       1.83510000
H        0.94900000       1.90000000      -0.07880000
H       -0.56550000       1.76790000      -0.97010000
H       -0.60540000       1.97350000       0.79310000
H       -2.13510000       0.11940000       0.41480000
H       -1.65020000      -0.85560000      -1.00120000
H       -2.15560000      -2.32800000       1.14000000
H        1.62430000      -2.60840000       1.51910000
H       -0.51020000      -1.27400000       3.13980000
H        2.25540000      -0.35770000       2.63210000
H        2.57250000       0.44370000       1.08880000
H        1.48040000       1.18770000       2.27360000
