21
Properties=species:S:1:pos:R:3 gdb_103160=T pbc="F F F"
C        0.15480000       1.48640000       0.07900000
O        0.40560000       0.08900000       0.13660000
C        0.73760000      -0.53490000      -1.08000000
C        2.05190000      -0.02850000      -1.68170000
C        0.67110000      -2.10430000      -0.98230000
C       -0.02570000      -2.64150000       0.26270000
C       -0.20800000      -2.15180000      -2.27420000
C       -0.39790000      -0.63550000      -2.13800000
O       -1.19530000       0.14760000      -2.57180000
H        1.07110000       2.06300000      -0.10820000
H       -0.58610000       1.73080000      -0.68920000
H       -0.23490000       1.76710000       1.06040000
H        2.85330000      -0.12930000      -0.94240000
H        2.32580000      -0.60950000      -2.56770000
H        1.98030000       1.02000000      -1.98340000
H        1.65260000      -2.57070000      -1.09820000
H       -1.01690000      -2.19570000       0.38870000
H       -0.14580000      -3.72730000       0.18950000
H        0.54970000      -2.41600000       1.16410000
H        0.33510000      -2.42350000      -3.18460000
H       -1.12640000      -2.74340000      -2.22800000
