20
Properties=species:S:1:pos:R:3 gdb_86032=T pbc="F F F"
C        0.55010000       1.49850000       0.19750000
C        0.02910000       0.09050000      -0.00340000
C        0.47100000      -0.69350000      -1.25880000
C        1.01240000      -1.73710000      -0.25070000
C        0.24580000      -3.05110000      -0.18560000
C        2.53820000      -1.95070000      -0.32670000
C        3.06980000      -2.73450000       0.78630000
N        3.48640000      -3.36290000       1.66190000
O        0.67790000      -0.87530000       0.86470000
H        1.62830000       1.54930000       0.01650000
H        0.04840000       2.19210000      -0.48620000
H        0.35990000       1.83130000       1.22260000
H       -1.05750000       0.06740000       0.15570000
H       -0.32200000      -1.04400000      -1.92080000
H        1.23990000      -0.19130000      -1.85120000
H        0.45070000      -3.66810000      -1.06750000
H        0.52960000      -3.61630000       0.70660000
H       -0.82930000      -2.85800000      -0.14220000
H        2.78890000      -2.45840000      -1.26590000
H        3.03680000      -0.97670000      -0.33610000
