15
Properties=species:S:1:pos:R:3 gdb_45973=T pbc="F F F"
O        0.00310000       0.41180000      -1.11160000
C        0.03920000       1.32180000      -0.31860000
C       -1.22900000       1.83920000       0.35310000
N       -1.10310000       3.22120000       0.79110000
C        0.04160000       3.80520000       1.27930000
O        0.02820000       4.76380000       2.01370000
N        1.28080000       3.26340000       0.81220000
C        1.76550000       2.06190000       1.47180000
C        1.30650000       2.01660000       0.04050000
H       -2.03990000       1.74720000      -0.37450000
H       -1.47000000       1.15930000       1.18680000
H       -1.93750000       3.65770000       1.15740000
H        2.83080000       2.02650000       1.67720000
H        1.13500000       1.59950000       2.22810000
H        2.06680000       1.97380000      -0.73410000
