22
Properties=species:S:1:pos:R:3 gdb_120295=T pbc="F F F"
C        0.52450000       1.25150000       0.09700000
C        0.13850000      -0.19670000       0.16630000
C       -1.25530000      -0.76400000      -0.18230000
C       -1.08490000      -1.83180000       0.94270000
C        0.29840000      -1.23510000       1.26010000
N        1.16990000      -1.22060000       0.10510000
C        1.22630000      -2.29170000      -0.88710000
C        2.22360000      -1.87860000      -1.97050000
O        3.48530000      -1.57410000      -1.41580000
H        1.49270000       1.41330000       0.57810000
H        0.60500000       1.58830000      -0.94370000
H       -0.22230000       1.88140000       0.59230000
H       -2.05000000      -0.05030000       0.04700000
H       -1.40090000      -1.12010000      -1.20680000
H       -1.79720000      -1.69260000       1.75850000
H       -1.09960000      -2.88430000       0.64460000
H        0.74830000      -1.15250000       2.24480000
H        1.59800000      -3.18960000      -0.38030000
H        0.25780000      -2.53860000      -1.34530000
H        2.36400000      -2.69810000      -2.68410000
H        1.81270000      -1.02090000      -2.53160000
H        3.28470000      -1.07080000      -0.61470000
