20
Properties=species:S:1:pos:R:3 gdb_84873=T pbc="F F F"
C       -0.58540000       1.52410000       0.10390000
C        0.04310000       0.11700000      -0.01180000
C        0.59990000      -0.07560000      -1.40270000
C        1.87210000      -0.03360000      -1.78250000
C        3.02610000       0.20560000      -0.85220000
O        3.04600000      -0.59510000       0.33180000
C        2.06490000      -0.45570000       1.27530000
C        2.64090000      -0.80610000       2.62350000
N        0.85050000      -0.12820000       1.16740000
H        0.18470000       2.29490000       0.00310000
H       -1.33420000       1.68320000      -0.67790000
H       -1.06180000       1.63480000       1.08110000
H       -0.79210000      -0.59390000       0.08420000
H       -0.16470000      -0.22880000      -2.16330000
H        2.12150000      -0.15390000      -2.83350000
H        3.97080000      -0.02860000      -1.34940000
H        3.06820000       1.26430000      -0.55660000
H        3.43550000      -0.10220000       2.89270000
H        1.85770000      -0.78790000       3.37980000
H        3.09630000      -1.80100000       2.58470000
