17
Properties=species:S:1:pos:R:3 gdb_12749=T pbc="F F F"
C       -0.08470000       1.51800000      -0.00460000
C        0.10350000       0.03460000       0.03760000
N       -0.76410000      -0.85270000       0.84330000
C        0.70910000      -0.88640000       1.03950000
C        1.24300000      -1.82560000      -0.04260000
C        0.64480000      -0.83950000      -1.12490000
C       -0.29220000      -1.34210000      -2.10940000
C       -1.06350000      -1.75130000      -2.93630000
H        0.79190000       2.01650000      -0.43210000
H       -0.95350000       1.78470000      -0.61760000
H       -0.24500000       1.92290000       1.00070000
H       -1.15400000      -0.27820000       1.59120000
H        1.14370000      -0.67150000       2.00850000
H        2.33180000      -1.88090000      -0.09610000
H        0.81410000      -2.82900000      -0.03370000
H        1.46400000      -0.31170000      -1.62470000
H       -1.75280000      -2.11760000      -3.65580000
