16
Properties=species:S:1:pos:R:3 gdb_80342=T pbc="F F F"
C       -0.09700000       1.52490000      -0.10120000
C        0.03870000       0.02770000       0.06530000
C        1.31170000      -0.74630000      -0.15220000
O        2.45300000       0.01040000       0.29130000
C        1.99700000      -0.06560000       1.66340000
C        1.97630000       1.21340000       2.37480000
N        1.94180000       2.20320000       2.97080000
C        0.67850000      -0.72320000       1.22010000
O        0.07650000      -1.72690000       1.93780000
H        0.84950000       2.03390000       0.08900000
H       -0.40160000       1.75970000      -1.12610000
H       -0.84940000       1.93870000       0.57720000
H       -0.81320000      -0.55600000      -0.28410000
H        1.48340000      -1.52890000      -0.88030000
H        2.60940000      -0.77990000       2.22640000
H       -0.70660000      -1.37150000       2.37330000
