16
Properties=species:S:1:pos:R:3 gdb_92853=T pbc="F F F"
O       -0.02510000       1.45450000      -0.04880000
C        0.00910000       0.03610000      -0.00930000
C        0.54870000      -0.56870000       1.35410000
N       -0.50060000      -1.40430000       1.97470000
C       -1.49820000      -1.32280000       1.19080000
O       -2.72340000      -1.87810000       1.29150000
C       -3.48350000      -1.43550000       0.14470000
C       -2.54550000      -0.55920000      -0.66280000
C       -1.38390000      -0.51710000      -0.01550000
H        0.88370000       1.77020000      -0.00990000
H        0.59190000      -0.35590000      -0.85610000
H        1.45190000      -1.17010000       1.19960000
H        0.81260000       0.25570000       2.02830000
H       -3.82780000      -2.31870000      -0.40870000
H       -4.36920000      -0.89520000       0.50270000
H       -2.84240000      -0.07820000      -1.58510000
