15
Properties=species:S:1:pos:R:3 gdb_60513=T pbc="F F F"
O       -0.09680000       1.45360000      -0.12330000
C       -0.07010000       0.05950000      -0.01930000
C        0.49450000      -0.58640000      -1.28590000
C        0.27970000       0.07650000      -2.59150000
N        1.62020000       0.05000000      -1.97320000
C        0.76050000      -0.33370000       1.19790000
O        1.29620000       0.49100000       1.89940000
C        0.86080000      -1.76860000       1.49060000
N        0.90850000      -2.90300000       1.70900000
H        0.38570000       1.80100000       0.64330000
H       -1.08480000      -0.34330000       0.14950000
H        0.54030000      -1.67230000      -1.24250000
H        0.17350000      -0.52860000      -3.48660000
H       -0.26120000       1.01710000      -2.59200000
H        1.78260000       0.96060000      -1.54530000
