18
Properties=species:S:1:pos:R:3 gdb_11527=T pbc="F F F"
C        0.05540000       1.34880000       0.31260000
C        0.07500000      -0.14540000      -0.00450000
O        0.72760000      -0.95090000       0.96320000
C        2.12280000      -0.91150000       0.92380000
C        2.87940000       0.03200000       1.82480000
C        2.83110000      -1.45460000       2.12040000
C       -1.33210000      -0.72310000      -0.13300000
O       -2.27020000      -0.12410000      -0.58800000
H        1.05580000       1.78080000       0.24620000
H       -0.60220000       1.85450000      -0.39860000
H       -0.33440000       1.51430000       1.32120000
H        0.55060000      -0.30110000      -0.99140000
H        2.53910000      -1.11940000      -0.06300000
H        3.80560000       0.46660000       1.46450000
H        2.28950000       0.67760000       2.46470000
H        2.20410000      -1.77250000       2.94550000
H        3.72200000      -2.05290000       1.96810000
H       -1.40820000      -1.77340000       0.22360000
