19
Properties=species:S:1:pos:R:3 gdb_85951=T pbc="F F F"
C       -0.22880000       1.10720000       0.33750000
C        0.16390000      -0.28810000      -0.08790000
O        0.53850000      -1.11710000       0.72050000
C        0.05460000      -0.64360000      -1.57410000
O       -0.33950000       0.45570000      -2.36840000
C        1.26270000      -1.49900000      -2.08040000
C        0.40860000      -2.79240000      -1.90490000
O        0.71070000      -3.55670000      -0.77170000
C       -0.85920000      -1.89180000      -1.79060000
H        0.45700000       1.84380000      -0.09710000
H       -1.22340000       1.35510000      -0.04400000
H       -0.19700000       1.17890000       1.42490000
H        0.42460000       1.02480000      -2.50950000
H        1.46620000      -1.26440000      -3.12860000
H        2.18510000      -1.45930000      -1.49730000
H        0.41830000      -3.47990000      -2.75320000
H        0.74270000      -2.94240000      -0.02030000
H       -1.55680000      -2.15020000      -0.99160000
H       -1.39600000      -1.77940000      -2.73510000
