21
Properties=species:S:1:pos:R:3 gdb_114483=T pbc="F F F"
C        0.28600000       1.11220000       0.35740000
O       -0.09660000      -0.18030000      -0.05160000
C        0.49770000      -0.58000000      -1.25980000
C        2.00070000      -0.99770000      -1.21810000
C        1.60260000      -2.41290000      -1.75700000
C        1.70490000      -3.54070000      -0.76870000
C        0.53770000      -3.80980000      -0.18460000
C       -0.59070000      -2.93230000      -0.67710000
C        0.08870000      -2.00860000      -1.71710000
H        1.36960000       1.18640000       0.53300000
H        0.00680000       1.87200000      -0.39000000
H       -0.23640000       1.32710000       1.29280000
H        0.30200000       0.17740000      -2.03500000
H        2.66660000      -0.41310000      -1.85800000
H        2.40950000      -1.02150000      -0.20460000
H        2.02770000      -2.65010000      -2.73650000
H        2.64300000      -4.04050000      -0.54990000
H        0.38470000      -4.57020000       0.57450000
H       -1.39810000      -3.52630000      -1.12380000
H       -1.04130000      -2.35330000       0.13610000
H       -0.43860000      -2.01320000      -2.67240000
