19
Properties=species:S:1:pos:R:3 gdb_95711=T pbc="F F F"
C        0.40940000       1.66600000       0.04010000
C       -0.04000000       0.21070000       0.06650000
C        0.03050000      -0.43020000      -1.32070000
O       -0.40310000      -1.77750000      -1.32640000
C        0.53550000      -2.72740000      -0.87230000
C        0.55990000      -2.91580000       0.64810000
O        0.77290000      -3.99670000       1.14170000
C        0.30420000      -1.68080000       1.51820000
O        0.80570000      -0.47600000       0.98470000
H        1.45070000       1.73900000      -0.28880000
H       -0.21240000       2.25300000      -0.64250000
H        0.33730000       2.10180000       1.03920000
H       -1.08120000       0.14460000       0.42190000
H       -0.63170000       0.10680000      -2.00860000
H        1.06090000      -0.35560000      -1.70340000
H        0.27370000      -3.69210000      -1.31550000
H        1.55670000      -2.47030000      -1.19970000
H       -0.78070000      -1.61670000       1.70550000
H        0.79940000      -1.85240000       2.47800000
