20
Properties=species:S:1:pos:R:3 gdb_50162=T pbc="F F F"
O        0.14770000      -0.00170000       0.83950000
C        0.10960000       1.17910000       0.55580000
N        1.11920000       1.86050000      -0.02300000
C        2.45260000       1.41890000      -0.42400000
C        2.74600000       2.88120000      -0.88470000
C        4.01460000       3.58910000      -0.35010000
C        4.67510000       3.38230000      -1.74090000
C        3.26030000       3.11810000      -2.32540000
C        1.30980000       3.25450000      -0.42500000
H       -0.77150000       1.82790000       0.74480000
H        3.06140000       1.05050000       0.40950000
H        2.44460000       0.66210000      -1.21670000
H        3.82410000       4.64700000      -0.14260000
H        4.50230000       3.14660000       0.52260000
H        5.24380000       4.21620000      -2.15680000
H        5.30260000       2.48760000      -1.76720000
H        3.14260000       2.29730000      -3.03810000
H        2.82400000       4.02250000      -2.76160000
H        0.64010000       3.58910000      -1.22700000
H        1.26240000       3.97390000       0.40220000
