19
Properties=species:S:1:pos:R:3 gdb_41230=T pbc="F F F"
C       -0.03010000       1.49670000      -0.26120000
C        1.48310000       1.51150000       0.17740000
C        1.16640000       0.24930000       0.99440000
C        1.69570000      -1.13900000       1.36460000
C        0.31240000      -1.63870000       1.84160000
C       -0.35120000      -0.41130000       2.41690000
O        0.52740000       0.67630000       2.22410000
C       -0.81170000      -0.88250000       1.06310000
C       -0.03690000      -0.03380000       0.07750000
H       -0.64860000       2.09270000       0.40870000
H       -0.24750000       1.76240000      -1.29720000
H        2.15140000       1.30680000      -0.66260000
H        1.85100000       2.37180000       0.73870000
H        2.08800000      -1.68590000       0.50380000
H        2.42870000      -1.14700000       2.17600000
H        0.15580000      -2.63100000       2.24250000
H       -0.94760000      -0.36610000       3.31750000
H       -1.77760000      -1.34050000       0.89590000
H        0.26120000      -0.60490000      -0.80670000
