18
Properties=species:S:1:pos:R:3 gdb_92392=T pbc="F F F"
C        0.22290000       1.53770000      -0.06950000
C        0.05960000       0.04440000       0.07220000
O        0.88440000      -0.72380000      -0.85200000
C        1.38100000      -1.57570000       0.18690000
C        2.73770000      -1.13090000       0.75950000
N        2.04820000      -0.12690000       1.62380000
C        0.70670000      -0.69160000       1.28480000
C       -0.11540000      -1.13690000       2.37430000
C       -0.79830000      -1.49530000       3.29820000
H        1.24630000       1.83170000       0.17120000
H       -0.01130000       1.84070000      -1.09470000
H       -0.46510000       2.05780000       0.60570000
H       -0.99070000      -0.25650000      -0.04100000
H        1.18900000      -2.63550000       0.00910000
H        3.23920000      -1.93220000       1.31640000
H        3.43410000      -0.69400000       0.03780000
H        2.26630000      -0.21460000       2.60900000
H       -1.40490000      -1.81570000       4.10900000
