20
Properties=species:S:1:pos:R:3 gdb_126917=T pbc="F F F"
C       -0.09120000       1.58710000      -0.01070000
C       -0.04000000       0.06640000       0.08550000
N       -1.37370000      -0.50410000      -0.07550000
C       -1.48660000      -1.88710000      -0.02460000
C       -0.54270000      -2.89820000      -0.01240000
C       -1.29750000      -4.10130000      -0.02690000
C       -0.78410000      -5.50680000      -0.01490000
N       -2.60250000      -3.86390000      -0.04220000
N       -2.69740000      -2.50360000      -0.03780000
H        0.91190000       2.01070000       0.08830000
H       -0.50990000       1.90290000      -0.97050000
H       -0.70980000       2.01360000       0.78780000
H        0.59020000      -0.33790000      -0.71450000
H        0.42410000      -0.23850000       1.03820000
H       -2.06250000      -0.02900000       0.49500000
H        0.52860000      -2.78990000       0.02040000
H       -0.18740000      -5.70950000       0.88170000
H       -1.62180000      -6.20720000      -0.03640000
H       -0.14340000      -5.70630000      -0.88120000
H       -3.60170000      -2.07520000      -0.13030000
