16
Properties=species:S:1:pos:R:3 gdb_47247=T pbc="F F F"
N       -0.16130000       1.33040000      -0.31540000
C       -0.02350000       0.11310000       0.02920000
N        1.19970000      -0.52670000       0.24800000
C        1.47420000      -1.71030000       0.93080000
C        0.68730000      -2.26860000       1.85470000
C       -0.60270000      -1.61180000       2.27640000
N       -1.55160000      -1.45190000       1.17720000
C       -1.29080000      -0.75850000       0.03380000
O       -2.01220000      -0.78730000      -0.93960000
H        0.73670000       1.82060000      -0.33850000
H        2.00040000      -0.01440000      -0.09320000
H        2.42030000      -2.16080000       0.64770000
H        0.97540000      -3.21860000       2.28700000
H       -1.09930000      -2.18860000       3.05800000
H       -0.39320000      -0.62140000       2.70410000
H       -2.33550000      -2.08480000       1.10600000
