17
Properties=species:S:1:pos:R:3 gdb_55012=T pbc="F F F"
N        0.63310000       0.01920000      -1.33960000
C       -0.46540000      -0.48640000      -1.97050000
O       -0.66260000      -0.39650000      -3.16690000
C       -1.49140000      -1.09950000      -1.03020000
C       -2.07250000      -2.44720000      -1.34760000
C       -1.19370000      -2.27690000      -0.12910000
C        0.20160000      -2.84150000      -0.00580000
N        0.37650000      -4.09240000      -0.50110000
O        1.10410000      -2.21770000       0.53400000
H        1.36950000       0.36020000      -1.93960000
H        0.90340000      -0.37420000      -0.44520000
H       -2.16360000      -0.35310000      -0.61640000
H       -3.13420000      -2.61270000      -1.20360000
H       -1.65450000      -2.94500000      -2.21690000
H       -1.68730000      -2.25370000       0.83920000
H       -0.38410000      -4.61360000      -0.89940000
H        1.28000000      -4.52790000      -0.40950000
