15
Properties=species:S:1:pos:R:3 gdb_5725=T pbc="F F F"
C        0.03560000       1.40070000      -0.08260000
C        1.53500000       1.79170000       0.00240000
N        2.04250000       0.62130000       0.68550000
C        3.23990000       0.15200000       1.19460000
C        3.05640000      -1.18450000       1.45960000
C        1.72250000      -1.56130000       1.07980000
C        1.15640000      -0.41160000       0.60040000
O       -0.00820000      -0.03720000       0.00420000
H       -0.52090000       1.82410000       0.76220000
H       -0.44040000       1.70210000      -1.01680000
H        1.99310000       1.91210000      -0.98790000
H        1.68520000       2.71270000       0.57220000
H        4.07990000       0.80620000       1.35740000
H        3.79100000      -1.83820000       1.90550000
H        1.26390000      -2.53250000       1.15770000
