15
Properties=species:S:1:pos:R:3 gdb_61160=T pbc="F F F"
C       -0.53020000       1.30670000      -0.11640000
N       -0.06930000      -0.07930000      -0.10240000
C       -0.08420000      -0.74960000       1.19280000
C       -1.44680000      -0.92000000       1.71540000
N       -2.52010000      -1.03380000       2.12690000
C        0.35950000      -0.81300000      -1.16940000
O        0.72620000      -1.97580000      -1.08820000
C        0.43130000      -0.21640000      -2.58970000
O        0.18820000       0.90170000      -2.95490000
H       -0.47630000       1.70720000      -1.12320000
H       -1.56310000       1.35890000       0.24480000
H        0.09840000       1.91170000       0.54810000
H        0.38570000      -1.72740000       1.06610000
H        0.49790000      -0.17030000       1.92040000
H        0.77500000      -1.01480000      -3.27620000
