15
Properties=species:S:1:pos:R:3 gdb_112389=T pbc="F F F"
C       -0.13340000       1.35180000       0.09150000
O       -0.02000000      -0.06720000       0.05310000
C        0.70000000      -0.60000000       1.09490000
O       -0.02890000      -0.51620000       2.34140000
C       -0.42310000      -1.75190000       2.74940000
O       -1.09890000      -1.97410000       3.70840000
N        0.12290000      -2.68130000       1.86850000
C        0.87910000      -2.10050000       0.86670000
N        1.58310000      -2.58630000      -0.06290000
H        0.85900000       1.82280000       0.11570000
H       -0.65000000       1.64600000      -0.82300000
H       -0.71100000       1.68140000       0.96190000
H        1.65300000      -0.07790000       1.24880000
H       -0.01840000      -3.66870000       2.00610000
H        1.56820000      -3.60720000      -0.06920000
