19
Properties=species:S:1:pos:R:3 gdb_86460=T pbc="F F F"
O       -0.10890000       1.43110000      -0.02790000
C       -0.00510000       0.01650000       0.00900000
C       -1.42640000      -0.53500000       0.08710000
C       -1.44270000      -2.06140000       0.10070000
O       -2.80290000      -2.46290000       0.14410000
C       -0.72300000      -2.63350000      -1.13760000
C        0.67500000      -2.05000000      -1.29710000
O        1.65810000      -2.73670000      -1.44540000
C        0.73280000      -0.52930000      -1.23050000
H        0.78130000       1.79770000      -0.03460000
H        0.54800000      -0.29860000       0.90990000
H       -1.92150000      -0.15290000       0.98390000
H       -1.99900000      -0.17700000      -0.77710000
H       -0.91560000      -2.41410000       1.00330000
H       -2.83120000      -3.42370000       0.19600000
H       -0.64450000      -3.72360000      -1.09530000
H       -1.32010000      -2.36360000      -2.01920000
H        0.23320000      -0.11850000      -2.11830000
H        1.78110000      -0.21780000      -1.25000000
