18
Properties=species:S:1:pos:R:3 gdb_95191=T pbc="F F F"
C        0.00120000       1.45360000       0.00490000
N        0.03040000       0.00890000      -0.16200000
C       -1.26180000      -0.67890000      -0.15070000
C       -1.24910000      -1.99710000      -0.92790000
C       -0.02760000      -2.83640000      -0.59300000
O        1.10560000      -2.61830000      -1.43250000
C        1.16940000      -2.15520000      -0.07540000
C        1.20710000      -0.65150000       0.08170000
O        2.25080000      -0.09380000       0.37430000
H        1.02620000       1.82040000      -0.00790000
H       -0.57000000       1.91320000      -0.80860000
H       -0.46300000       1.73900000       0.95910000
H       -1.58270000      -0.85820000       0.88780000
H       -1.99890000      -0.00020000      -0.59050000
H       -2.16660000      -2.54890000      -0.70170000
H       -1.23870000      -1.80100000      -2.00480000
H       -0.18880000      -3.88030000      -0.32720000
H        1.89410000      -2.66930000       0.55120000
