19
Properties=species:S:1:pos:R:3 gdb_94381=T pbc="F F F"
O       -0.03550000       1.35200000      -0.14460000
C        0.02890000      -0.05610000       0.00570000
C        0.21030000      -0.51550000       1.48230000
C       -1.33440000      -0.65510000       1.59450000
C       -1.40960000      -0.61590000       0.04730000
C       -2.61160000       0.01690000      -0.72340000
C       -2.82180000      -1.33750000      -1.41470000
O       -1.59820000      -1.66640000      -2.08870000
C       -1.69470000      -1.93830000      -0.68660000
H        0.85080000       1.70460000      -0.01480000
H        0.69530000      -0.50340000      -0.74300000
H        0.72860000      -1.47570000       1.55670000
H        0.69610000       0.20240000       2.14800000
H       -1.72650000      -1.54830000       2.08870000
H       -1.79690000       0.22650000       2.04480000
H       -3.42760000       0.28830000      -0.04770000
H       -2.38000000       0.85640000      -1.38100000
H       -3.73070000      -1.78290000      -1.80230000
H       -1.51120000      -2.95630000      -0.35860000
