22
Properties=species:S:1:pos:R:3 gdb_116703=T pbc="F F F"
C        0.18120000       1.43350000       0.13320000
O       -0.16110000       0.06780000      -0.05920000
C        0.51530000      -0.56740000      -1.03910000
N        0.29740000      -1.78320000      -1.28160000
C        1.03090000      -2.40350000      -2.32630000
C        1.43720000      -3.85330000      -2.13620000
C        0.37010000      -3.50410000      -3.14440000
C       -1.06510000      -3.88070000      -2.83590000
C        0.74020000      -3.57480000      -4.61360000
H        1.23350000       1.54870000       0.42180000
H       -0.01210000       2.02900000      -0.76780000
H       -0.45160000       1.79830000       0.94310000
H        1.24250000       0.06120000      -1.57590000
H        1.73750000      -1.77000000      -2.87030000
H        2.41750000      -4.15770000      -2.48900000
H        1.12360000      -4.31550000      -1.20680000
H       -1.29220000      -3.74410000      -1.77740000
H       -1.76340000      -3.25920000      -3.40910000
H       -1.25490000      -4.92660000      -3.10470000
H        0.62350000      -4.59560000      -4.99710000
H        0.09840000      -2.91980000      -5.21480000
H        1.77930000      -3.27500000      -4.78430000
