18
Properties=species:S:1:pos:R:3 gdb_51086=T pbc="F F F"
N       -0.07910000       1.26560000      -0.07690000
C       -0.07980000       0.02320000       0.13820000
O       -1.14220000      -0.72180000      -0.24190000
C       -1.04280000      -2.10950000      -0.08510000
C       -0.60490000      -2.84520000       1.22660000
C       -1.31630000      -4.00200000       0.48100000
C       -2.33810000      -2.95710000      -0.03330000
O       -0.47000000      -4.23830000      -0.66120000
C       -0.23400000      -2.89880000      -1.13380000
H        0.77700000       1.67990000       0.28610000
H        0.70820000      -0.55680000       0.63430000
H        0.45960000      -2.97090000       1.43490000
H       -1.14870000      -2.49180000       2.10370000
H       -1.58930000      -4.94550000       0.94570000
H       -3.03060000      -2.60910000       0.73380000
H       -2.85220000      -3.17190000      -0.97190000
H       -0.61910000      -2.76700000      -2.15100000
H        0.83810000      -2.66800000      -1.12090000
