14
Properties=species:S:1:pos:R:3 gdb_19760=T pbc="F F F"
O        0.09550000       1.39230000       0.11480000
C        0.01230000      -0.00710000       0.04690000
C       -1.37590000      -0.57470000      -0.25300000
C       -1.42980000      -0.57270000      -1.77700000
O       -0.18770000      -0.07200000      -2.25900000
C        0.65070000      -0.61040000      -1.23320000
O        0.31920000      -1.98380000      -1.16340000
C       -1.08980000      -1.84160000      -1.04120000
H       -0.16580000       1.72320000      -0.75430000
H        0.45910000      -0.41440000       0.95540000
H       -2.23450000      -0.43370000       0.38690000
H       -2.28370000      -0.38320000      -2.40940000
H        1.70200000      -0.44840000      -1.45160000
H       -1.64850000      -2.76530000      -1.02710000
