15
Properties=species:S:1:pos:R:3 gdb_49979=T pbc="F F F"
O       -0.64410000       0.61520000       0.73650000
C        0.18730000       0.91250000      -0.08220000
C        1.19500000       1.99380000       0.11850000
O        2.39570000       1.86960000      -0.69980000
C        1.52290000       2.89680000      -0.99550000
C        0.93180000       3.31860000      -2.35340000
C        0.33740000       4.56450000      -1.64960000
C        1.80290000       4.39850000      -1.17520000
O        2.18070000       4.08990000      -2.57790000
H        0.26850000       0.40590000      -1.06920000
H        1.35540000       2.32010000       1.14410000
H        0.54610000       2.72340000      -3.17900000
H        0.18790000       5.41260000      -2.31670000
H       -0.47030000       4.42760000      -0.92660000
H        2.44360000       5.07110000      -0.60810000
