21
Properties=species:S:1:pos:R:3 gdb_38318=T pbc="F F F"
C       -0.05410000       1.58770000       0.16960000
C        1.46760000       1.35710000       0.04790000
O        1.28330000       0.10520000       0.79200000
C        0.01450000       0.04950000       0.05590000
C        0.51170000      -0.22800000      -1.38040000
C       -0.39550000       0.12550000      -2.57660000
C        0.51770000       0.92960000      -3.52650000
C        1.41910000       1.75830000      -2.58660000
C        1.68260000       0.82560000      -1.38690000
H       -0.32870000       1.89900000       1.17760000
H       -0.58680000       2.17500000      -0.58150000
H        2.20920000       2.02750000       0.48320000
H       -0.72750000      -0.61510000       0.49940000
H        0.88300000      -1.25300000      -1.44650000
H       -0.82250000      -0.75920000      -3.05730000
H       -1.23860000       0.74800000      -2.25430000
H        1.13760000       0.23720000      -4.10950000
H       -0.03850000       1.54330000      -4.24210000
H        2.34080000       2.08730000      -3.07470000
H        0.89070000       2.66400000      -2.26600000
H        2.66240000       0.34820000      -1.45630000
