16
Properties=species:S:1:pos:R:3 gdb_4348=T pbc="F F F"
C       -0.01220000       1.51740000       0.00880000
C       -0.00140000       0.01010000       0.00690000
C       -0.08790000      -0.71340000      -1.18400000
N       -0.08580000      -2.04760000      -1.24090000
C        0.00650000      -2.72160000      -0.10110000
C        0.10280000      -2.11100000       1.16050000
N        0.25980000      -2.87400000       2.31610000
C        0.09410000      -0.71520000       1.19310000
H        0.90620000       1.92310000       0.44790000
H       -0.09970000       1.91210000      -1.00690000
H       -0.85030000       1.91130000       0.59470000
H       -0.16490000      -0.18940000      -2.13410000
H        0.00720000      -3.80900000      -0.17270000
H       -0.07900000      -3.82270000       2.24540000
H       -0.05670000      -2.43160000       3.16670000
H        0.16580000      -0.19670000       2.14660000
