21
Properties=species:S:1:pos:R:3 gdb_92548=T pbc="F F F"
C       -0.34710000       1.51670000       0.01520000
C       -0.01600000       0.01810000       0.01000000
C        0.74240000      -0.38340000      -1.27030000
C        1.15890000      -1.85390000      -1.25060000
O        2.38960000      -2.09900000      -1.97800000
C        3.12100000      -2.33210000      -0.75630000
C        1.81140000      -2.31170000       0.07470000
C        1.64870000      -1.39640000       1.24420000
C        0.79580000      -0.37130000       1.22790000
H        0.56820000       2.11880000      -0.00470000
H       -0.94840000       1.79030000      -0.85760000
H       -0.91040000       1.79380000       0.91260000
H       -0.97140000      -0.52990000       0.03810000
H        0.14270000      -0.16630000      -2.16130000
H        1.65180000       0.22480000      -1.33840000
H        0.35230000      -2.49760000      -1.62140000
H        3.67270000      -3.27860000      -0.78260000
H        3.81880000      -1.51470000      -0.53050000
H        1.51260000      -3.32940000       0.34750000
H        2.22090000      -1.62020000       2.14220000
H        0.66960000       0.24020000       2.11900000
