12
Properties=species:S:1:pos:R:3 gdb_131446=T pbc="F F F"
O        0.11470000       1.37650000       0.07750000
C        0.07070000       0.04040000       0.08360000
N        0.07840000      -0.65060000      -1.05440000
O        0.03760000      -2.04160000      -0.67980000
C       -0.00090000      -2.03960000       0.63470000
C        0.00470000      -0.82080000       1.19410000
O        0.06370000      -0.93340000       2.57350000
C       -0.23160000      -2.32510000       2.77000000
O        0.01590000      -3.05180000       1.51800000
H        0.16130000       1.66340000      -0.84540000
H        0.42110000      -2.73380000       3.54160000
H       -1.29430000      -2.45140000       3.01710000
