17
Properties=species:S:1:pos:R:3 gdb_74326=T pbc="F F F"
C        0.06590000       1.47740000       0.03790000
C       -0.02270000      -0.00750000      -0.03190000
N       -1.04640000      -0.71800000       0.22110000
C       -0.65820000      -2.11710000       0.01610000
C       -1.56220000      -2.79610000      -1.03390000
C       -2.94770000      -2.93400000      -0.59200000
N       -4.04000000      -3.06820000      -0.24110000
C        0.82870000      -2.04240000      -0.43170000
O        1.12950000      -0.63450000      -0.40570000
H        0.83140000       1.77510000       0.76110000
H        0.36120000       1.88430000      -0.93410000
H       -0.89830000       1.88870000       0.33300000
H       -0.76410000      -2.66170000       0.96050000
H       -1.54030000      -2.21450000      -1.96230000
H       -1.17320000      -3.79510000      -1.26450000
H        1.51220000      -2.55710000       0.24810000
H        0.99540000      -2.41390000      -1.44880000
