25
Properties=species:S:1:pos:R:3 gdb_80386=T pbc="F F F"
C        0.15630000       1.63360000      -0.37510000
C        0.26640000       0.13490000      -0.16360000
C        1.49950000      -0.69940000      -0.37810000
C        2.74100000       0.00700000       0.17930000
C        2.11640000      -0.04110000       1.62100000
C        2.86400000      -1.07850000       2.46880000
C        1.99540000       1.26060000       2.41790000
C        0.82430000      -0.65130000       1.00590000
C       -0.03150000      -1.67870000       1.70120000
H        1.10070000       2.16070000      -0.22880000
H       -0.16830000       1.83740000      -1.40190000
H       -0.58390000       2.08140000       0.29760000
H       -0.61830000      -0.37870000      -0.54060000
H        1.52520000      -1.51340000      -1.09470000
H        3.65420000      -0.58820000       0.10440000
H        2.95130000       1.00050000      -0.23040000
H        3.87140000      -0.71700000       2.70400000
H        2.35080000      -1.27070000       3.41770000
H        2.96470000      -2.03230000       1.94090000
H        1.49300000       2.05400000       1.86310000
H        1.42950000       1.09420000       3.34230000
H        2.98660000       1.63070000       2.70660000
H       -0.62620000      -1.22490000       2.50440000
H       -0.73460000      -2.14010000       0.99980000
H        0.56330000      -2.48210000       2.14770000
