17
Properties=species:S:1:pos:R:3 gdb_61190=T pbc="F F F"
N       -0.20630000       1.57130000       0.02280000
C       -0.08380000       0.11810000      -0.03480000
C       -1.42130000      -0.49020000       0.09960000
N       -2.45550000      -0.99260000       0.20680000
C        0.59670000      -0.44540000      -1.31120000
O       -0.09300000       0.12230000      -2.40220000
C        2.10330000      -0.09970000      -1.35090000
C        2.69550000      -0.51950000      -2.61400000
C        3.11180000      -0.87460000      -3.68500000
H        0.69900000       1.99350000       0.19720000
H       -0.53560000       1.90610000      -0.87830000
H        0.49980000      -0.21210000       0.83320000
H        0.49500000      -1.54100000      -1.30510000
H        0.36380000      -0.14090000      -3.21050000
H        2.22800000       0.98340000      -1.23010000
H        2.61520000      -0.58540000      -0.51080000
H        3.51570000      -1.18650000      -4.61680000
