21
Properties=species:S:1:pos:R:3 gdb_96399=T pbc="F F F"
C       -0.03820000       1.52110000      -0.09480000
C        0.05050000       0.00650000      -0.00380000
O        0.64850000      -0.45870000      -1.20160000
C        0.66340000      -1.87300000      -1.30630000
C        1.44860000      -2.51940000      -0.16440000
C        0.88980000      -2.05470000       1.18530000
C        0.82630000      -0.50710000       1.24260000
C        2.16090000       0.07770000       1.35070000
C        3.26500000       0.54290000       1.45480000
H        0.96120000       1.95670000      -0.16790000
H       -0.61120000       1.80800000      -0.98020000
H       -0.53370000       1.93090000       0.79090000
H       -0.96830000      -0.41540000       0.07640000
H       -0.37210000      -2.25800000      -1.31350000
H        1.11140000      -2.10020000      -2.27800000
H        1.39650000      -3.61050000      -0.25000000
H        2.50210000      -2.23050000      -0.24570000
H       -0.12920000      -2.44150000       1.31690000
H        1.49130000      -2.43660000       2.01500000
H        0.24920000      -0.21290000       2.12960000
H        4.23690000       0.96090000       1.54380000
