17
Properties=species:S:1:pos:R:3 gdb_41835=T pbc="F F F"
C        0.02050000       1.52130000       0.12770000
O        1.33060000       2.07550000      -0.01930000
C        2.09520000       1.41160000      -0.99690000
O        2.42990000       0.10360000      -0.53550000
C        1.29130000      -0.67460000      -0.34880000
C        0.00290000       0.00560000      -0.01720000
C        0.20900000      -0.59810000      -1.42460000
C        0.51660000       0.32980000      -2.52710000
C        1.40820000       1.30900000      -2.33950000
H       -0.30870000       1.80750000       1.13030000
H       -0.66180000       1.98390000      -0.60000000
H        3.04150000       1.95160000      -1.05350000
H        1.54540000      -1.63150000       0.09070000
H       -0.69200000      -0.52190000       0.62750000
H       -0.35020000      -1.49690000      -1.65640000
H        0.02320000       0.18760000      -3.48360000
H        1.67430000       2.01690000      -3.11530000
