16
Properties=species:S:1:pos:R:3 gdb_67981=T pbc="F F F"
C        0.03420000       1.49200000      -0.11200000
C        0.03710000      -0.00170000      -0.01250000
O        0.43800000      -0.65260000      -1.22330000
C        0.36780000      -1.99730000      -0.90500000
N        0.63330000      -2.96210000      -1.66780000
C       -0.08600000      -2.00910000       0.52030000
C        0.60900000      -0.78950000       1.21110000
O       -0.59050000      -0.47990000       1.99220000
C       -1.10320000      -0.82930000       0.66560000
H        1.03310000       1.86550000      -0.35460000
H       -0.65480000       1.82630000      -0.89290000
H       -0.28110000       1.91070000       0.84630000
H        0.91910000      -2.62480000      -2.58950000
H       -0.23000000      -2.94980000       1.04080000
H        1.57960000      -0.73590000       1.70390000
H       -2.18120000      -0.82320000       0.50560000
