15
Properties=species:S:1:pos:R:3 gdb_29017=T pbc="F F F"
O        0.09650000       1.36480000       0.09790000
C        0.06850000       0.00740000       0.02980000
C        0.07280000      -0.66990000      -1.19180000
C        0.04350000      -2.05860000      -1.21810000
C        0.00950000      -2.79280000      -0.03020000
C        0.00530000      -2.11780000       1.18000000
C        0.03440000      -0.71840000       1.23400000
C        0.02870000      -0.03950000       2.54770000
O        0.00040000      -0.62670000       3.60810000
H        0.11800000       1.72790000      -0.79370000
H        0.09920000      -0.10320000      -2.11920000
H        0.04720000      -2.57000000      -2.17520000
H       -0.01330000      -3.87600000      -0.05680000
H       -0.02060000      -2.64680000       2.12650000
H        0.05340000       1.06630000       2.50960000
