16
Properties=species:S:1:pos:R:3 gdb_44826=T pbc="F F F"
O       -0.50300000       0.08990000      -0.24650000
C       -0.26710000       1.23730000      -0.00240000
C       -1.11420000       2.52460000       0.06820000
N        0.14340000       3.34120000      -0.09250000
C        0.92690000       3.04930000       1.10340000
C        0.99050000       2.05820000      -0.00950000
C        2.23210000       1.79090000      -0.82870000
C        3.23230000       1.01890000      -0.09820000
C        4.04890000       0.38930000       0.51790000
H       -1.76630000       2.62250000      -0.80330000
H       -1.67760000       2.74050000       0.98010000
H        1.80410000       3.67870000       1.22320000
H        0.41470000       2.80160000       2.03080000
H        1.95040000       1.26030000      -1.74640000
H        2.65180000       2.75590000      -1.13860000
H        4.77100000      -0.17520000       1.05400000
