18
Properties=species:S:1:pos:R:3 gdb_23051=T pbc="F F F"
O       -0.07850000       1.32060000       0.08330000
N        0.01950000      -0.07230000       0.25050000
C       -1.09340000      -0.63260000       0.04850000
C       -2.50660000      -0.26200000      -0.32000000
O       -2.86750000      -1.66370000      -0.25900000
C       -1.52780000      -2.07520000       0.09650000
C       -0.79820000      -3.15120000      -0.74240000
C       -0.18130000      -3.68980000       0.57820000
C       -1.28960000      -2.93320000       1.36170000
H        0.82170000       1.61280000       0.26330000
H       -3.04670000       0.34860000       0.41380000
H       -2.64190000       0.16910000      -1.31940000
H       -1.53270000      -3.84270000      -1.16470000
H       -0.12870000      -2.80320000      -1.53150000
H       -0.13400000      -4.77280000       0.70140000
H        0.80820000      -3.26730000       0.76550000
H       -1.01890000      -2.40840000       2.28000000
H       -2.16540000      -3.56210000       1.54470000
