18
Properties=species:S:1:pos:R:3 gdb_88645=T pbc="F F F"
C       -0.84280000       1.28590000       0.35830000
C       -0.03910000       0.05770000       0.01250000
O        1.22410000       0.24700000      -0.63470000
C        1.21520000      -0.35700000       0.66540000
C        1.89470000       0.40190000       1.77280000
C        1.78950000      -0.21790000       3.20100000
C        3.33190000      -0.36180000       3.13300000
O        4.19850000      -0.75780000       3.86240000
N        3.34340000       0.16610000       1.86330000
H       -0.22360000       2.07810000       0.78280000
H       -1.32370000       1.68140000      -0.54220000
H       -1.63220000       1.03470000       1.07490000
H       -0.62970000      -0.74860000      -0.42820000
H        1.46040000      -1.42190000       0.65910000
H        1.64270000       1.46440000       1.72760000
H        1.42920000       0.45420000       3.98070000
H        1.25480000      -1.16850000       3.25780000
H        4.09880000       0.38680000       1.23100000
