18
Properties=species:S:1:pos:R:3 gdb_75772=T pbc="F F F"
C       -0.64910000       1.24620000      -0.04440000
C        0.09050000      -0.08090000      -0.07780000
C        1.45490000      -0.18420000      -0.77500000
O        1.92770000       0.34720000      -1.73530000
C        2.01200000      -1.11910000       0.30930000
C        0.79810000      -0.68440000       1.21020000
C        1.19790000       0.36290000       2.25830000
C        0.06720000      -1.78420000       1.82670000
N       -0.51930000      -2.65670000       2.30890000
H       -0.03590000       2.04520000       0.38000000
H       -0.91430000       1.54020000      -1.06400000
H       -1.57240000       1.17140000       0.53770000
H       -0.55250000      -0.86010000      -0.50670000
H        1.96410000      -2.16760000       0.00270000
H        3.01140000      -0.90120000       0.69180000
H        1.77590000       1.16530000       1.79000000
H        0.31950000       0.80360000       2.73630000
H        1.81760000      -0.09350000       3.03470000
