21
Properties=species:S:1:pos:R:3 gdb_116510=T pbc="F F F"
C       -0.08700000       1.21390000       0.44600000
O        0.08790000      -0.14740000       0.11900000
C        0.55330000      -0.38640000      -1.20090000
C        2.09240000      -0.36460000      -1.24530000
O        2.56670000      -0.33600000      -2.57660000
C        2.73860000      -1.57970000      -3.22990000
C        1.71830000      -2.66920000      -2.87350000
O        0.38250000      -2.21030000      -2.86830000
C       -0.05560000      -1.73270000      -1.61220000
H        0.84990000       1.78690000       0.38870000
H       -0.82540000       1.69610000      -0.21220000
H       -0.45310000       1.25230000       1.47510000
H        0.19640000       0.39330000      -1.89050000
H        2.44810000       0.55720000      -0.77360000
H        2.50580000      -1.20340000      -0.66640000
H        2.67260000      -1.35060000      -4.29860000
H        3.74560000      -1.98870000      -3.03690000
H        1.79460000      -3.45810000      -3.63180000
H        1.96100000      -3.12950000      -1.90390000
H        0.16240000      -2.46560000      -0.81790000
H       -1.14180000      -1.62840000      -1.68060000
