23
Properties=species:S:1:pos:R:3 gdb_121940=T pbc="F F F"
C       -0.09440000       1.42840000       0.01800000
C       -0.06120000      -0.08970000       0.06920000
O        0.72350000      -0.48720000       1.17490000
C        0.81860000      -1.88690000       1.31950000
C        1.63900000      -2.20300000       2.57600000
C        0.94290000      -1.67980000       3.83730000
C        1.92850000      -3.69290000       2.60200000
C        2.02240000      -4.50700000       3.81970000
O        0.86160000      -4.56880000       2.98810000
H        0.91710000       1.83100000      -0.08700000
H       -0.69390000       1.76860000      -0.83160000
H       -0.53050000       1.83400000       0.93540000
H       -1.08220000      -0.49720000       0.16170000
H        0.36290000      -0.49900000      -0.86370000
H       -0.18370000      -2.33950000       1.40570000
H        1.29940000      -2.32990000       0.42980000
H        2.60420000      -1.69070000       2.45960000
H        1.60870000      -1.70170000       4.70480000
H        0.62640000      -0.64740000       3.67800000
H        0.05900000      -2.28420000       4.06440000
H        2.48130000      -4.05330000       1.73080000
H        2.64530000      -5.40080000       3.81870000
H        1.87090000      -4.05120000       4.79530000
