16
Properties=species:S:1:pos:R:3 gdb_128022=T pbc="F F F"
C       -0.26660000       1.62270000       0.06960000
N       -0.00050000       0.20050000       0.03170000
C       -0.99670000      -0.57450000      -0.11660000
N       -0.89200000      -1.93970000      -0.16980000
C        0.27740000      -2.67340000      -0.07420000
C        1.58720000      -2.28070000       0.09130000
N        2.25140000      -3.46680000       0.10880000
N        1.42940000      -4.51250000      -0.03330000
N        0.22020000      -4.03250000      -0.14570000
H        0.28560000       2.12910000      -0.73140000
H       -1.33410000       1.87780000      -0.03760000
H        0.09000000       2.04600000       1.01660000
H       -2.03470000      -0.22920000      -0.21620000
H       -1.72900000      -2.48630000      -0.28940000
H        2.04360000      -1.31500000       0.18850000
H        3.24010000      -3.62970000       0.21160000
