18
Properties=species:S:1:pos:R:3 gdb_60909=T pbc="F F F"
O       -0.94080000       0.54890000       0.00400000
C        0.17750000      -0.28430000      -0.15480000
C        1.15670000       0.32030000      -1.14810000
O        0.91250000       1.36490000      -1.70370000
C        0.83940000      -0.56680000       1.17640000
C        1.85100000       0.31420000       1.79190000
N        2.29170000      -1.00820000       1.29880000
C        1.85310000      -1.98820000       2.35820000
C        0.35810000      -1.61400000       2.18100000
H       -0.78330000       1.30250000      -0.58800000
H       -0.13040000      -1.25360000      -0.59260000
H        2.08640000      -0.24770000      -1.33090000
H        2.23660000       1.14180000       1.20340000
H        1.83370000       0.49630000       2.86460000
H        2.09580000      -3.00640000       2.04920000
H        2.30600000      -1.79590000       3.33600000
H       -0.19240000      -1.23890000       3.04740000
H       -0.22300000      -2.41290000       1.71550000
