15
Properties=species:S:1:pos:R:3 gdb_2703=T pbc="F F F"
O       -0.12470000       1.44070000      -0.05880000
C        0.00900000       0.02550000       0.00470000
C       -1.39560000      -0.55460000       0.00720000
N       -2.06790000      -0.20930000      -1.23990000
C       -3.47550000      -0.57670000      -1.24240000
C       -4.12550000      -0.17660000      -2.49400000
N       -4.64700000       0.15420000      -3.47000000
H        0.73360000       1.82180000      -0.26330000
H        0.55800000      -0.36150000      -0.86530000
H        0.53790000      -0.28700000       0.91740000
H       -1.33480000      -1.64670000       0.09570000
H       -1.93050000      -0.18230000       0.90070000
H       -1.96850000       0.79100000      -1.38350000
H       -3.56030000      -1.66710000      -1.14730000
H       -4.05790000      -0.14740000      -0.40540000
