21
Properties=species:S:1:pos:R:3 gdb_115649=T pbc="F F F"
C       -0.06280000       1.42790000      -0.30070000
O       -0.06610000       0.14320000       0.28220000
C       -1.28150000      -0.53460000       0.13840000
C       -1.65760000      -1.16660000      -1.23270000
C       -2.14960000      -2.41410000      -0.44740000
C       -1.31920000      -1.94070000       0.77020000
C        0.01180000      -2.64390000       1.11580000
O       -0.41220000      -2.86930000       2.47730000
C       -1.67250000      -2.21360000       2.23900000
H        0.91830000       1.86890000      -0.11010000
H       -0.22830000       1.38690000      -1.38740000
H       -0.83650000       2.07470000       0.14190000
H       -2.11270000       0.08230000       0.52140000
H       -2.37400000      -0.64210000      -1.86810000
H       -0.75390000      -1.38400000      -1.80940000
H       -3.22460000      -2.37880000      -0.24530000
H       -1.90490000      -3.39710000      -0.85650000
H        0.19630000      -3.58600000       0.58220000
H        0.90120000      -2.00800000       1.06070000
H       -1.79760000      -1.31850000       2.86400000
H       -2.52650000      -2.88520000       2.40300000
