16
Properties=species:S:1:pos:R:3 gdb_96792=T pbc="F F F"
C       -0.07230000       1.39690000      -0.03310000
N        0.02300000      -0.05390000      -0.05520000
C        0.59320000      -0.62550000       0.91130000
N        1.19330000      -0.06830000       2.04980000
C        1.74790000      -1.01080000       2.90690000
O        2.38540000      -0.78680000       3.90410000
C        1.40200000      -2.33150000       2.27340000
C       -0.04830000      -2.62600000       2.10110000
N        0.73060000      -2.05310000       0.98770000
H        0.91670000       1.87890000      -0.00260000
H       -0.57570000       1.73820000      -0.94020000
H       -0.65280000       1.76610000       0.82600000
H        1.23660000       0.91990000       2.24250000
H        2.13820000      -3.12580000       2.31030000
H       -0.35970000      -3.65390000       1.94920000
H       -0.76990000      -1.98700000       2.60240000
