17
Properties=species:S:1:pos:R:3 gdb_51593=T pbc="F F F"
O       -0.84770000       0.78820000       0.84220000
C       -0.29990000       1.23940000      -0.12780000
C        1.16770000       1.64430000      -0.16340000
N        1.35110000       2.73100000      -1.11260000
C        1.44700000       4.09630000      -0.60590000
C        2.62810000       3.42390000      -1.21830000
C        3.83290000       3.06810000      -0.35370000
C        4.52690000       1.87040000      -0.83150000
N        5.05950000       0.92120000      -1.21920000
H       -0.82570000       1.38590000      -1.09650000
H        1.48950000       1.85280000       0.86760000
H        1.73230000       0.77050000      -0.51920000
H        0.89270000       4.85350000      -1.15300000
H        1.46410000       4.23710000       0.47500000
H        2.89810000       3.67170000      -2.24290000
H        4.53930000       3.90620000      -0.36300000
H        3.54490000       2.91350000       0.69030000
