12
Properties=species:S:1:pos:R:3 gdb_130870=T pbc="F F F"
O       -0.21120000       0.01420000       0.00120000
C       -0.04210000       1.20560000       0.00880000
C        1.27230000       1.89170000       0.00010000
C        1.31120000       3.25580000       0.01050000
N        2.44160000       4.03310000       0.00470000
N        3.58110000       3.44390000      -0.01180000
N        3.61590000       2.11800000      -0.02270000
C        2.54480000       1.17890000      -0.01960000
O        2.78560000      -0.00260000      -0.03030000
H       -0.89870000       1.91770000       0.02430000
H        0.38710000       3.82850000       0.02500000
H        4.55220000       1.72760000      -0.03530000
