13
Properties=species:S:1:pos:R:3 gdb_64647=T pbc="F F F"
O       -0.08080000       1.43350000      -0.00150000
C        0.04410000       0.02430000       0.03360000
C        0.61450000      -0.55260000       1.31460000
C       -0.33340000      -1.27740000       1.91390000
N       -1.52830000      -1.29260000       1.18450000
C       -1.43490000      -0.53330000       0.03830000
O       -2.29000000      -0.31680000      -0.77310000
C        0.77200000      -0.47390000      -1.14760000
N        1.38340000      -0.84500000      -2.05580000
H        0.80510000       1.81470000      -0.00370000
H        1.62930000      -0.40650000       1.64920000
H       -0.27780000      -1.82820000       2.84210000
H       -2.38950000      -1.72430000       1.47570000
