21
Properties=species:S:1:pos:R:3 gdb_97766=T pbc="F F F"
C       -0.58510000       1.90210000      -0.30610000
C       -0.20120000       0.45460000       0.05160000
C        0.61760000      -0.19000000      -0.97050000
C        1.29030000      -0.69520000      -1.83440000
C        2.10750000      -1.32760000      -2.84920000
C        3.61380000      -1.61740000      -2.54170000
C        3.46330000      -2.94360000      -3.33090000
O        4.16560000      -4.08900000      -2.92790000
C        1.92830000      -2.85670000      -3.12700000
H        0.30790000       2.51940000      -0.43630000
H       -1.15430000       1.93330000      -1.23920000
H       -1.19710000       2.34300000       0.48660000
H        0.33510000       0.44570000       1.00960000
H       -1.11300000      -0.13490000       0.21450000
H        2.02840000      -0.77480000      -3.79190000
H        4.35730000      -0.88880000      -2.87090000
H        3.75170000      -1.81400000      -1.47350000
H        3.72240000      -2.79910000      -4.38460000
H        3.96510000      -4.24940000      -1.99950000
H        1.62780000      -3.37630000      -2.21130000
H        1.26950000      -3.15910000      -3.94350000
