19
Properties=species:S:1:pos:R:3 gdb_105494=T pbc="F F F"
C       -1.56110000      -0.24060000      -0.05180000
N       -0.11420000      -0.02400000       0.03270000
C        0.66510000      -0.58960000      -1.06590000
C        2.18450000      -0.66550000      -0.77050000
O        2.18030000      -2.09640000      -0.87630000
C        0.74670000      -2.13010000      -1.06290000
C        0.24030000      -0.00110000      -2.41990000
N        0.77480000       1.22550000      -2.71600000
O       -0.60220000      -0.53010000      -3.11950000
H       -2.03620000       0.16180000      -0.95790000
H       -1.76760000      -1.31490000      -0.02110000
H       -2.03010000       0.21430000       0.82510000
H        0.07160000       0.97340000       0.09180000
H        2.85930000      -0.20660000      -1.50570000
H        2.44440000      -0.31900000       0.23750000
H        0.23740000      -2.59920000      -0.21410000
H        0.45630000      -2.61700000      -1.99730000
H        1.61430000       1.55290000      -2.26930000
H        0.54220000       1.62250000      -3.61310000
