16
Properties=species:S:1:pos:R:3 gdb_78062=T pbc="F F F"
C       -0.11070000       1.67270000       0.06750000
C        0.11240000       0.16830000       0.00250000
C        0.75860000      -0.56040000      -1.18160000
C        2.24100000      -0.45180000      -1.29610000
C        3.03960000       0.75890000      -0.93900000
O        3.02610000       1.30620000       0.13490000
N        1.67260000      -1.37660000      -0.28060000
C        1.16760000      -0.56900000       0.85350000
O        1.40710000      -0.69380000       2.00770000
H        0.80260000       2.23650000      -0.11840000
H       -0.87000000       1.97810000      -0.65960000
H       -0.47320000       1.94380000       1.06350000
H       -0.83670000      -0.34310000       0.21360000
H        0.20150000      -1.05490000      -1.96990000
H        2.66310000      -1.00120000      -2.13570000
H        3.67540000       1.13360000      -1.77000000
