19
Properties=species:S:1:pos:R:3 gdb_36646=T pbc="F F F"
N       -0.17170000      -1.12110000      -0.19930000
C       -0.06530000       0.01030000       0.00690000
C        0.08350000       1.43980000       0.29690000
N        1.27250000       1.98530000      -0.34640000
C        1.42160000       3.40840000      -0.16360000
C        1.90720000       4.08870000       1.17960000
C        3.33190000       3.54760000       0.86470000
C        2.78280000       4.07580000      -0.49770000
C        2.26740000       5.31360000       0.29370000
H       -0.79800000       1.96320000      -0.09470000
H        0.05750000       1.56620000       1.39380000
H        2.09490000       1.47220000      -0.05230000
H        0.55000000       3.89980000      -0.61260000
H        1.40520000       4.10610000       2.14830000
H        4.16550000       4.10820000       1.29550000
H        3.50880000       2.47420000       0.96950000
H        3.28920000       4.07130000      -1.46370000
H        1.43680000       5.87100000      -0.14830000
H        3.03520000       5.98210000       0.68870000
