21
Properties=species:S:1:pos:R:3 gdb_78969=T pbc="F F F"
C       -0.12850000       1.56350000       0.03920000
C        0.00970000       0.04440000       0.00120000
C        0.95010000      -0.50450000      -1.09020000
C        2.34890000       0.00770000      -0.68880000
C        2.75270000      -1.35270000      -0.18960000
C        2.28400000      -0.29600000       0.80120000
C        0.80000000      -0.60440000       1.17360000
C        0.67420000      -2.10080000       0.79890000
C        1.38220000      -1.95240000      -0.55970000
H        0.84540000       2.05230000       0.14030000
H       -0.59890000       1.94050000      -0.87580000
H       -0.74980000       1.87950000       0.88430000
H       -0.98830000      -0.40600000      -0.07060000
H        0.64080000      -0.41910000      -2.13090000
H        2.94140000       0.79650000      -1.13540000
H        3.72090000      -1.83750000      -0.16520000
H        2.98110000       0.16270000       1.48960000
H        0.49950000      -0.31800000       2.18190000
H        1.22670000      -2.76560000       1.47090000
H       -0.36570000      -2.43820000       0.73960000
H        1.34720000      -2.78080000      -1.26480000
