22
Properties=species:S:1:pos:R:3 gdb_58191=T pbc="F F F"
C       -0.15800000       1.64640000       0.04920000
C       -0.04020000       0.11870000      -0.06430000
C       -1.43080000      -0.59430000       0.03260000
N       -1.37320000      -2.05430000      -0.07570000
C       -2.10970000      -0.22160000       1.27920000
N       -2.61340000       0.07600000       2.27570000
N        0.64280000      -0.37720000      -1.26720000
C        0.20720000       0.21760000      -2.52520000
C        2.09400000      -0.37760000      -1.15430000
H        0.81960000       2.12210000      -0.07330000
H       -0.83080000       2.05770000      -0.71000000
H       -0.54850000       1.92950000       1.02970000
H        0.54660000      -0.24800000       0.78620000
H       -2.05810000      -0.22230000      -0.78960000
H       -0.67670000      -2.24980000      -0.79380000
H       -1.00550000      -2.44110000       0.79000000
H        0.52370000       1.26700000      -2.65240000
H        0.62620000      -0.35880000      -3.35610000
H       -0.88190000       0.17970000      -2.61560000
H        2.39960000      -0.91420000      -0.25130000
H        2.52450000      -0.89600000      -2.01730000
H        2.53790000       0.63390000      -1.12020000
