20
Properties=species:S:1:pos:R:3 gdb_118987=T pbc="F F F"
C       -0.26780000       1.35040000      -0.89140000
O       -0.26310000      -0.04460000      -1.08310000
C        0.65550000      -0.71540000      -0.24690000
C        0.57210000      -2.21750000      -0.54310000
C       -0.81360000      -2.76570000      -0.19130000
C        0.98790000      -2.53040000      -2.01200000
O        2.19610000      -3.32310000      -1.88430000
C        2.40500000      -3.43950000      -0.55470000
N        1.61060000      -2.89570000       0.26890000
H       -0.54630000       1.61860000       0.13950000
H        0.71660000       1.79500000      -1.10660000
H       -1.00470000       1.77330000      -1.57860000
H        1.68210000      -0.35840000      -0.43300000
H        0.43000000      -0.53510000       0.81580000
H       -1.58520000      -2.23540000      -0.75540000
H       -0.87360000      -3.83350000      -0.42110000
H       -1.00890000      -2.63740000       0.87710000
H        0.24720000      -3.12630000      -2.55170000
H        1.21810000      -1.63500000      -2.59310000
H        3.28230000      -4.02070000      -0.29090000
