18
Properties=species:S:1:pos:R:3 gdb_82082=T pbc="F F F"
C       -0.72210000       1.39120000       0.59390000
N       -0.20840000       0.02630000       0.29090000
H       -0.87930000      -0.66250000       0.62160000
C        0.17630000      -0.33390000      -1.10560000
C        1.45120000       0.34090000      -1.52280000
C        1.51230000      -0.89490000      -0.67110000
C        1.24420000      -0.49210000       0.78360000
C        2.26790000       0.52070000       1.39660000
O        2.03520000       1.73490000       1.22240000
O        3.20730000      -0.09930000       1.89820000
H        0.13770000       2.06320000       0.60280000
H       -1.47590000       1.64900000      -0.15420000
H       -1.17110000       1.37530000       1.58880000
H       -0.59580000      -0.68660000      -1.77760000
H        1.67750000       0.20050000      -2.57440000
H        1.74690000       1.29110000      -1.09040000
H        1.98920000      -1.81590000      -0.97180000
H        1.05080000      -1.32650000       1.45560000
