18
Properties=species:S:1:pos:R:3 gdb_113125=T pbc="F F F"
C        0.26940000       1.56530000       0.08110000
C       -0.23820000       0.14490000      -0.15130000
N        0.53250000      -0.48340000      -1.22590000
C        1.72760000      -1.20680000      -0.86280000
C        0.50730000      -1.96460000      -1.34620000
C       -0.21560000      -2.75930000      -0.38020000
C       -0.83790000      -3.42660000       0.40260000
C        0.47320000      -2.46970000      -2.69930000
C        0.45920000      -2.90500000      -3.81880000
H        1.31370000       1.56100000       0.41060000
H        0.20680000       2.15390000      -0.83810000
H       -0.32590000       2.06000000       0.85450000
H       -0.19500000      -0.43430000       0.78350000
H       -1.28600000       0.16350000      -0.46970000
H        2.57610000      -1.11030000      -1.53410000
H        1.96910000      -1.32350000       0.19310000
H       -1.38240000      -4.02270000       1.09260000
H        0.43870000      -3.28260000      -4.81100000
