18
Properties=species:S:1:pos:R:3 gdb_60193=T pbc="F F F"
C       -0.23650000       1.51480000       0.05020000
C       -0.35250000       0.00120000      -0.11030000
O        0.91510000      -0.64180000       0.02040000
C       -1.37890000      -0.60700000       0.86040000
C       -1.51660000      -2.09680000       0.67160000
O       -2.60440000      -2.75100000       1.32490000
C       -2.61900000      -2.71500000      -0.10260000
C       -3.64420000      -1.90140000      -0.72100000
N       -4.45230000      -1.25650000      -1.23810000
H        0.51530000       1.90960000      -0.63800000
H       -1.19110000       2.00900000      -0.15470000
H        0.06140000       1.77650000       1.07370000
H       -0.66550000      -0.22510000      -1.13700000
H        1.31170000      -0.34330000       0.84680000
H       -1.05490000      -0.41690000       1.89320000
H       -2.35290000      -0.12330000       0.73580000
H       -0.58180000      -2.65490000       0.68900000
H       -2.45400000      -3.67200000      -0.59390000
