20
Properties=species:S:1:pos:R:3 gdb_76155=T pbc="F F F"
C       -0.06540000       1.56700000      -0.01370000
C        0.00830000       0.05410000      -0.01760000
N       -1.21900000      -0.53200000      -0.50340000
C        1.34050000      -0.63230000      -0.26090000
N        2.53210000       0.15050000      -0.42650000
C        0.70240000      -0.65790000       1.14980000
C        1.32230000       0.12000000       2.30190000
C        0.14620000      -1.92960000       1.53570000
N       -0.30380000      -2.95500000       1.83200000
H        0.88910000       2.02740000       0.23980000
H       -0.35170000       1.91650000      -1.01290000
H       -0.83660000       1.90650000       0.68300000
H       -1.28940000      -0.42020000      -1.51060000
H       -1.27690000      -1.52400000      -0.29840000
H        1.26310000      -1.58400000      -0.79070000
H        3.36180000      -0.41180000      -0.26510000
H        2.59330000       0.51360000      -1.37240000
H        1.94530000       0.92900000       1.92180000
H        0.54830000       0.53680000       2.95280000
H        1.95250000      -0.53770000       2.90750000
