18
Properties=species:S:1:pos:R:3 gdb_82745=T pbc="F F F"
C       -0.02310000       1.49190000       0.04580000
C        0.01620000      -0.01050000       0.03600000
N        0.91070000      -0.71760000      -0.93290000
C        0.82070000      -1.86410000      -0.02040000
C       -0.68270000      -2.12170000       0.42850000
O       -0.35510000      -1.72240000       1.79960000
C        0.67010000      -0.92340000       1.18040000
C       -1.32210000      -0.80820000      -0.07640000
O       -2.37960000      -0.35990000       0.72760000
H        0.96440000       1.91400000       0.25240000
H       -0.36030000       1.87860000      -0.92290000
H       -0.73000000       1.84120000       0.80400000
H        0.49280000      -0.85860000      -1.85340000
H        1.51530000      -2.69780000      -0.10910000
H       -1.21930000      -3.06630000       0.36350000
H        1.44380000      -0.54000000       1.84150000
H       -1.67740000      -0.84600000      -1.11110000
H       -2.12210000      -0.59030000       1.63250000
