20
Properties=species:S:1:pos:R:3 gdb_120576=T pbc="F F F"
C       -0.09670000       1.56910000      -0.06460000
C       -0.15000000       0.04350000      -0.17820000
C        0.95510000      -0.52130000      -1.08160000
C        0.90660000      -2.03200000      -1.17860000
C       -0.00080000      -2.72820000      -2.16130000
C        1.50570000      -2.74060000      -2.37690000
O        2.05670000      -1.92450000      -3.36660000
C        2.21610000      -3.98350000      -2.15830000
N        2.78130000      -4.98140000      -2.00520000
H        0.85990000       1.90200000       0.35310000
H       -0.21070000       2.04320000      -1.04560000
H       -0.89290000       1.94790000       0.58340000
H       -0.06660000      -0.40300000       0.82120000
H       -1.12820000      -0.26580000      -0.56800000
H        0.87810000      -0.08890000      -2.08410000
H        1.93590000      -0.21840000      -0.69290000
H        1.05450000      -2.55250000      -0.23630000
H       -0.49190000      -3.65140000      -1.87700000
H       -0.54870000      -2.10480000      -2.86060000
H        1.92630000      -2.35310000      -4.22030000
