23
Properties=species:S:1:pos:R:3 gdb_121274=T pbc="F F F"
O       -0.07260000       1.47490000      -0.10250000
C        0.02890000       0.06180000       0.00560000
C       -1.38300000      -0.51080000      -0.00910000
C       -1.42990000      -2.04240000       0.02650000
C       -0.85600000      -2.68290000       1.31770000
C       -1.55760000      -4.05440000       1.44940000
C       -2.91540000      -3.86080000       0.78780000
C       -3.70010000      -2.62580000       1.15850000
C       -2.83650000      -2.62700000      -0.08160000
H        0.81510000       1.84290000      -0.07000000
H        0.60830000      -0.36020000      -0.83310000
H        0.54600000      -0.22660000       0.93440000
H       -1.93940000      -0.10060000       0.84260000
H       -1.88520000      -0.14550000      -0.91330000
H       -0.85670000      -2.42360000      -0.83200000
H        0.23290000      -2.77690000       1.29110000
H       -1.09240000      -2.04960000       2.18030000
H       -0.99750000      -4.82240000       0.90190000
H       -1.62340000      -4.38780000       2.49110000
H       -3.46430000      -4.73920000       0.46590000
H       -4.77380000      -2.65970000       1.00920000
H       -3.39940000      -2.04210000       2.02290000
H       -3.33080000      -2.58490000      -1.04650000
