15
Properties=species:S:1:pos:R:3 gdb_14079=T pbc="F F F"
C       -0.05330000       1.50540000      -0.11660000
C       -0.00500000       0.00750000       0.02140000
O        1.28740000      -0.61900000      -0.08080000
C        0.63200000      -0.65800000       1.16140000
C        1.17270000      -0.14370000       2.49550000
O        0.67880000      -1.36750000       3.12920000
C        0.23780000      -1.89300000       1.92340000
N       -0.29510000      -2.98900000       1.64160000
H        0.76420000       1.97850000       0.43380000
H        0.03070000       1.79390000      -1.16900000
H       -1.00480000       1.89210000       0.26320000
H       -0.79290000      -0.55080000      -0.48480000
H        2.26120000      -0.07400000       2.55990000
H        0.69690000       0.74250000       2.92260000
H       -0.40200000      -3.58390000       2.46460000
