16
Properties=species:S:1:pos:R:3 gdb_85512=T pbc="F F F"
O        0.31480000       1.22460000      -0.47120000
C        0.05690000      -0.05350000       0.02940000
C        0.25420000      -0.28310000       1.54060000
C       -0.58870000      -1.50700000       1.80390000
N       -0.48150000      -2.31320000       2.76320000
O       -1.52640000      -1.64230000       0.78930000
C       -1.39760000      -0.56230000      -0.14480000
C       -2.48650000       0.45410000       0.18910000
O       -2.34820000       1.65400000       0.17970000
H       -0.41900000       1.79730000      -0.20330000
H        0.71370000      -0.73890000      -0.51800000
H        1.28900000      -0.43640000       1.84390000
H       -0.14240000       0.57120000       2.10290000
H       -1.18170000      -3.05450000       2.69700000
H       -1.59450000      -0.95370000      -1.15010000
H       -3.45150000      -0.01370000       0.47670000
