19
Properties=species:S:1:pos:R:3 gdb_74674=T pbc="F F F"
C       -0.02760000       1.45650000       0.07180000
C       -0.02920000      -0.03220000       0.00170000
C       -0.05830000      -0.87010000      -1.04430000
C        0.01320000      -2.24830000      -0.42170000
C       -0.92700000      -2.15410000       0.84110000
C       -0.45090000      -3.29350000       1.72950000
O        0.98470000      -3.16420000       1.59190000
C        1.08950000      -2.06550000       0.71750000
C        0.05470000      -0.97200000       1.19460000
H        0.87160000       1.83450000       0.57520000
H       -0.06610000       1.89960000      -0.92750000
H       -0.88480000       1.83490000       0.64360000
H       -0.08200000      -0.64430000      -2.10150000
H        0.01910000      -3.13670000      -1.05410000
H       -1.99990000      -1.98650000       0.73610000
H       -0.73290000      -3.18020000       2.78300000
H       -0.76810000      -4.28390000       1.38190000
H        2.13280000      -1.83040000       0.50430000
H        0.10430000      -0.56140000       2.20450000
