17
Properties=species:S:1:pos:R:3 gdb_83058=T pbc="F F F"
C       -0.17560000       1.56400000       0.03390000
C        0.00620000       0.06740000       0.07400000
N        1.24360000      -0.63080000      -0.28670000
C        2.48210000       0.18580000      -0.29820000
C        2.72560000       0.60680000       1.13240000
C        1.78300000       0.11720000       1.93580000
C        0.79120000      -0.66500000       1.13930000
C        0.29050000      -1.90700000       1.67920000
N       -0.13200000      -2.87940000       2.14060000
H        0.61720000       2.10520000       0.55250000
H       -0.20580000       1.90630000      -1.00670000
H       -1.13150000       1.82990000       0.49530000
H       -0.85830000      -0.48100000      -0.29720000
H        3.30340000      -0.42370000      -0.69430000
H        2.36540000       1.04080000      -0.97680000
H        3.54980000       1.24280000       1.43320000
H        1.70600000       0.23770000       3.00800000
