17
Properties=species:S:1:pos:R:3 gdb_65694=T pbc="F F F"
C        0.08950000       1.53290000      -0.33190000
C        0.02560000       0.04940000      -0.03230000
C        1.25800000      -0.80290000      -0.11580000
C        0.65730000      -0.49490000       1.24850000
C        1.34920000       0.38350000       2.14800000
N        1.91760000       1.09030000       2.86620000
N       -1.19740000      -0.60760000      -0.41420000
C       -2.38390000      -0.40120000       0.23250000
O       -2.51580000       0.25210000       1.24230000
H        1.03260000       1.96570000       0.00930000
H       -0.00170000       1.70570000      -1.40920000
H       -0.72870000       2.04680000       0.17830000
H        1.16160000      -1.82470000      -0.46520000
H        2.19000000      -0.31370000      -0.37180000
H        0.11230000      -1.29480000       1.73500000
H       -1.22200000      -1.07880000      -1.30610000
H       -3.22060000      -0.92510000      -0.27130000
