19
Properties=species:S:1:pos:R:3 gdb_89899=T pbc="F F F"
O       -0.79770000       1.08460000       0.87270000
C       -0.07690000       0.12300000       0.12040000
C        0.61620000      -0.95720000       1.00140000
C       -0.66260000      -1.81000000       0.86360000
C       -1.06750000      -0.96140000      -0.36280000
O       -0.55550000      -3.24470000       0.69260000
C       -1.57140000      -3.44960000       1.68120000
C       -1.11130000      -2.95660000       3.01550000
C       -1.66750000      -1.97910000       1.99680000
H       -0.16150000       1.61080000       1.36790000
H        0.54440000       0.60280000      -0.64590000
H        1.45260000      -1.43070000       0.47900000
H        0.92970000      -0.66480000       2.00770000
H       -2.11120000      -0.65550000      -0.45870000
H       -0.73160000      -1.44210000      -1.28490000
H       -2.31170000      -4.21950000       1.49960000
H       -1.77430000      -3.16130000       3.85090000
H       -0.05050000      -2.97200000       3.25140000
H       -2.51840000      -1.33840000       2.18070000
