20
Properties=species:S:1:pos:R:3 gdb_96504=T pbc="F F F"
C       -0.15190000       1.52960000       0.06850000
C        0.00450000       0.00540000       0.04340000
C        0.68020000      -0.46390000      -1.26830000
C        0.43470000      -1.92820000      -1.62170000
O        0.94480000      -2.84860000      -0.66410000
C        0.33110000      -2.79310000       0.57810000
O        0.89930000      -1.83410000       1.46280000
C        0.76460000      -0.48530000       1.26430000
N        1.28670000       0.32590000       2.08430000
H        0.82150000       2.02070000      -0.00350000
H       -0.77270000       1.85290000      -0.77320000
H       -0.61450000       1.86240000       0.99910000
H       -1.00220000      -0.43790000       0.07710000
H        0.28700000       0.14070000      -2.09440000
H        1.75740000      -0.26920000      -1.21590000
H       -0.64580000      -2.10190000      -1.75480000
H        0.93100000      -2.18230000      -2.56230000
H       -0.75230000      -2.62470000       0.48080000
H        0.51690000      -3.74740000       1.07400000
H        1.76390000      -0.18930000       2.82680000
