19
Properties=species:S:1:pos:R:3 gdb_68378=T pbc="F F F"
O       -0.10200000       1.42780000      -0.06930000
C        0.01390000       0.03490000       0.07010000
C        0.11830000      -0.59570000       1.49220000
C       -0.73600000      -1.76180000       0.91580000
C       -1.31130000      -0.73870000      -0.10600000
C        0.16170000      -2.77450000       0.20310000
C        1.17390000      -2.09840000      -0.73060000
O        1.99430000      -2.72930000      -1.35060000
C        1.08980000      -0.56770000      -0.83730000
H        0.77750000       1.81710000      -0.01030000
H        1.11110000      -0.82600000       1.89340000
H       -0.44380000       0.00100000       2.21400000
H       -1.44080000      -2.25120000       1.58920000
H       -2.14110000      -0.16710000       0.31540000
H       -1.57680000      -1.08930000      -1.10830000
H        0.73040000      -3.38530000       0.91470000
H       -0.42460000      -3.47700000      -0.40220000
H        0.89620000      -0.30830000      -1.88520000
H        2.08360000      -0.16790000      -0.59260000
