19
Properties=species:S:1:pos:R:3 gdb_32932=T pbc="F F F"
C       -0.19910000       1.03710000      -1.06030000
C       -0.05220000       0.16960000       0.18040000
O        1.10180000      -0.69380000       0.11960000
C        0.98430000      -1.78290000      -0.67100000
C        1.25110000      -2.02990000      -1.99000000
N        1.01490000      -3.35760000      -2.28210000
C        0.61320000      -3.91630000      -1.16190000
C        0.24740000      -5.35140000      -0.98220000
N        0.57000000      -2.99700000      -0.14660000
H        0.69510000       1.64900000      -1.20910000
H       -0.35330000       0.42070000      -1.95020000
H       -1.06170000       1.70260000      -0.95090000
H        0.11040000       0.78390000       1.07050000
H       -0.95260000      -0.43750000       0.34370000
H        1.60850000      -1.33500000      -2.73340000
H        0.88440000      -5.84820000      -0.24070000
H       -0.79300000      -5.47410000      -0.65850000
H        0.37270000      -5.86020000      -1.93890000
H        0.34720000      -3.16070000       0.82130000
