14
Properties=species:S:1:pos:R:3 gdb_19331=T pbc="F F F"
N        0.09070000      -1.14300000      -0.05140000
C        0.04740000       0.01480000      -0.02940000
C       -0.01710000       1.43200000       0.02520000
C        0.23530000       2.33570000      -1.16930000
C        1.15010000       2.44350000       0.00740000
C        0.49780000       3.17350000       1.21610000
N       -0.86620000       3.61080000       0.82520000
C       -0.61960000       2.21480000       1.24080000
H        0.65340000       1.82120000      -2.02750000
H       -0.47870000       3.11990000      -1.38310000
H        2.20160000       2.19550000      -0.03760000
H        1.03670000       3.64230000       2.02750000
H       -1.27300000       4.09760000       1.62260000
H       -1.14210000       1.74970000       2.06530000
