17
Properties=species:S:1:pos:R:3 gdb_76003=T pbc="F F F"
C       -0.15710000       1.53310000      -0.06050000
C       -0.03070000       0.02120000      -0.04860000
C       -1.14130000      -0.67880000       0.53900000
N       -2.03820000      -1.25050000       0.99680000
C        0.70250000      -0.72100000      -1.19070000
N        1.31420000      -0.06890000      -2.29800000
C        1.34940000      -0.64800000       0.17290000
C        2.50090000       0.17770000       0.38100000
C        3.47390000       0.86800000       0.53920000
H        0.66280000       1.98430000      -0.62060000
H       -1.10060000       1.82980000      -0.52760000
H       -0.13650000       1.93630000       0.95550000
H        0.26890000      -1.68680000      -1.43500000
H        0.64190000       0.38110000      -2.90800000
H        2.01430000       0.60470000      -2.01030000
H        1.33080000      -1.56210000       0.75750000
H        4.33490000       1.46930000       0.69870000
