18
Properties=species:S:1:pos:R:3 gdb_66637=T pbc="F F F"
C       -0.11490000       1.48920000      -0.02660000
C        0.06610000       0.00640000       0.04250000
C        0.78480000      -0.87890000      -0.90370000
C        1.43380000      -2.00490000      -0.05690000
C        0.27900000      -3.02340000       0.04380000
C       -0.72880000      -1.94040000       0.41250000
C        0.13060000      -0.92590000       1.26970000
O        1.44780000      -1.46440000       1.27770000
N       -0.71300000      -0.98760000      -0.76850000
H        0.74480000       2.00570000       0.41430000
H       -0.21510000       1.81520000      -1.06610000
H       -1.01470000       1.80540000       0.51230000
H        1.16330000      -0.54640000      -1.86160000
H        2.42620000      -2.34510000      -0.34370000
H        0.02640000      -3.50270000      -0.90550000
H        0.45870000      -3.76860000       0.82150000
H       -1.72950000      -2.21460000       0.73720000
H       -0.17340000      -0.59470000       2.26000000
