15
Properties=species:S:1:pos:R:3 gdb_10720=T pbc="F F F"
N        0.36350000       1.05890000       0.26370000
H        1.21710000       1.26270000       0.77570000
H        0.00250000       2.32780000      -0.91030000
H        0.36000000       0.06720000       0.05250000
C       -0.80830000       1.43760000       1.07470000
C       -0.87720000       2.94690000       1.18570000
C       -1.38330000       3.57890000       2.40800000
O        0.02290000       3.50810000       2.16300000
C       -0.94270000       3.77390000      -0.10540000
O       -1.42500000       4.87510000      -0.13300000
O       -0.41940000       3.18620000      -1.18350000
H       -1.70420000       1.06740000       0.56370000
H       -0.79410000       1.00970000       2.08550000
H       -1.81780000       4.57060000       2.32220000
H       -1.74720000       2.95060000       3.21970000
