20
Properties=species:S:1:pos:R:3 gdb_102683=T pbc="F F F"
C        0.01140000       1.31880000      -0.11810000
O       -0.06470000      -0.08690000       0.02400000
C       -1.38960000      -0.62420000      -0.00220000
C       -1.83050000      -0.80890000      -1.46100000
O       -0.90880000      -1.60600000      -2.17560000
C       -1.35410000      -1.95340000       0.75280000
C       -0.81270000      -1.79270000       2.18530000
C       -0.78000000      -3.05660000       2.91610000
N       -0.76180000      -4.06280000       3.48430000
H        1.06680000       1.59050000      -0.04270000
H       -0.37160000       1.66600000      -1.08740000
H       -0.54670000       1.83180000       0.67870000
H       -2.07930000       0.07300000       0.50180000
H       -2.80030000      -1.31620000      -1.49920000
H       -1.95970000       0.17770000      -1.93430000
H       -0.03500000      -1.25510000      -1.96180000
H       -2.36640000      -2.36890000       0.78130000
H       -0.73360000      -2.66000000       0.19550000
H        0.19720000      -1.37460000       2.14710000
H       -1.42870000      -1.08320000       2.75150000
