23
Properties=species:S:1:pos:R:3 gdb_74959=T pbc="F F F"
C        0.00140000       1.49600000       0.02910000
C       -0.07300000       0.00460000      -0.01730000
C       -0.08230000      -0.79830000      -1.08870000
C        0.00680000      -2.23490000      -0.60530000
C        1.45700000      -2.42230000      -0.04390000
C        1.45710000      -1.49210000       1.20550000
C        0.00250000      -0.89730000       1.22420000
C       -0.42090000      -0.28900000       2.55080000
C       -0.79110000      -2.12560000       0.71140000
H        0.92160000       1.83590000       0.52320000
H       -0.01600000       1.92530000      -0.97680000
H       -0.83090000       1.92900000       0.59780000
H       -0.02730000      -0.49030000      -2.12680000
H       -0.30220000      -3.00330000      -1.31520000
H        1.63050000      -3.46590000       0.23790000
H        2.21650000      -2.14860000      -0.78020000
H        1.64070000      -2.05970000       2.12420000
H        2.21400000      -0.70450000       1.15320000
H        0.21640000       0.55780000       2.82930000
H       -1.45470000       0.07180000       2.51500000
H       -0.35400000      -1.02820000       3.35670000
H       -1.85010000      -1.90430000       0.55190000
H       -0.69190000      -3.00280000       1.36200000
