18
Properties=species:S:1:pos:R:3 gdb_115551=T pbc="F F F"
C        0.15440000       1.01080000       0.48770000
O       -0.28190000       0.19150000      -0.58380000
C       -1.40230000      -0.56370000      -0.29300000
C       -1.87940000      -1.49220000      -1.42430000
C       -2.18220000      -2.58270000      -0.36190000
C       -1.23470000      -1.84020000       0.63240000
O        0.10700000      -2.26580000       0.55890000
C       -1.68830000      -1.73180000       2.02180000
N       -2.05670000      -1.65130000       3.11540000
H        0.98930000       1.60620000       0.11300000
H       -0.64550000       1.68560000       0.82700000
H        0.49700000       0.40840000       1.33810000
H       -2.22180000       0.05380000       0.10600000
H       -2.70460000      -1.14030000      -2.04390000
H       -1.03410000      -1.76670000      -2.05740000
H       -3.21990000      -2.57430000      -0.02200000
H       -1.88520000      -3.60810000      -0.58980000
H        0.17140000      -3.13440000       0.97260000
