16
Properties=species:S:1:pos:R:3 gdb_32465=T pbc="F F F"
N       -0.42200000       1.16980000      -0.14070000
H       -0.52400000       0.18060000      -0.36970000
H        0.47850000       1.51250000      -0.47860000
H       -1.18260000       1.75840000      -0.60140000
C       -0.55220000       1.49050000       1.36850000
C       -0.66020000       2.95610000       1.42270000
C        0.05710000       3.89670000       2.11280000
O       -0.34070000       5.14360000       1.74090000
C       -1.31660000       5.03870000       0.68460000
O       -1.72120000       6.01800000       0.06940000
C       -1.54960000       3.66870000       0.57870000
O       -2.25150000       3.05360000      -0.49070000
H       -1.45850000       0.95370000       1.67220000
H        0.31370000       1.06900000       1.88180000
H        0.72570000       3.82320000       2.95620000
H       -2.38510000       3.75990000      -1.14060000
