20
Properties=species:S:1:pos:R:3 gdb_23045=T pbc="F F F"
C       -0.36280000       1.40550000      -0.02950000
C        0.08930000      -0.03390000      -0.06580000
C        1.48050000      -0.41130000      -0.48220000
O        2.42960000       0.53420000      -0.83170000
C        1.07130000      -0.62070000       0.97750000
C        1.66670000       0.16570000       2.08160000
C        1.55140000      -0.34570000       3.49450000
N        2.28320000       1.25870000       1.79900000
O        2.81280000       1.87950000       2.94000000
H        0.44530000       2.07620000       0.26570000
H       -0.70630000       1.71310000      -1.02290000
H       -1.19230000       1.54380000       0.67200000
H       -0.68760000      -0.74030000      -0.34860000
H        1.59690000      -1.31750000      -1.07170000
H        2.62780000       1.05760000      -0.03320000
H        0.85940000      -1.64430000       1.26850000
H        2.54450000      -0.55020000       3.90810000
H        1.10120000       0.41820000       4.13560000
H        0.94980000      -1.25410000       3.54110000
H        3.21140000       2.67740000       2.57680000
