19
Properties=species:S:1:pos:R:3 gdb_29904=T pbc="F F F"
C       -0.31350000       1.37250000       0.10280000
N       -0.07300000      -0.04360000      -0.05870000
C        0.43390000      -0.64590000      -1.17850000
C        0.60820000      -1.98600000      -0.91840000
C        0.18660000      -2.20800000       0.42430000
C       -0.22760000      -0.99200000       0.93030000
N        0.26400000      -3.43380000       1.11600000
C       -0.84770000      -3.82750000       1.97040000
C       -0.59080000      -4.53790000       0.68590000
H        0.48410000       1.85960000       0.67670000
H       -0.37000000       1.84270000      -0.88130000
H       -1.26400000       1.54030000       0.61840000
H        0.62700000      -0.06970000      -2.07000000
H        0.98240000      -2.73020000      -1.60390000
H       -0.59390000      -0.72270000       1.90760000
H       -0.57670000      -4.28350000       2.91840000
H       -1.71420000      -3.16990000       2.00410000
H       -1.28290000      -4.34920000      -0.13170000
H       -0.12350000      -5.51850000       0.68130000
