21
Properties=species:S:1:pos:R:3 gdb_121953=T pbc="F F F"
O       -0.00130000       1.40690000      -0.11830000
C        0.04070000      -0.01180000      -0.09090000
C       -1.39010000      -0.52250000       0.00870000
C       -1.47280000      -2.04890000       0.06450000
C       -2.91950000      -2.56690000       0.10220000
O       -3.66570000      -2.13900000      -1.02370000
C       -2.95080000      -4.08570000       0.20110000
C       -4.09930000      -4.86440000      -0.26830000
O       -2.90740000      -4.75790000      -1.06630000
H        0.89990000       1.73310000      -0.19470000
H        0.51630000      -0.41480000      -1.00070000
H        0.62890000      -0.37570000       0.76860000
H       -1.85230000      -0.08770000       0.90400000
H       -1.96250000      -0.15630000      -0.84890000
H       -0.97090000      -2.48970000      -0.80830000
H       -0.94190000      -2.42480000       0.95020000
H       -3.42700000      -2.14720000       0.98140000
H       -3.40600000      -2.72980000      -1.74500000
H       -2.30310000      -4.52390000       0.96130000
H       -4.28610000      -5.85310000       0.14600000
H       -4.96390000      -4.33960000      -0.66620000
