15
Properties=species:S:1:pos:R:3 gdb_21727=T pbc="F F F"
N       -0.57450000       0.96860000      -0.00160000
H       -0.62180000      -0.04430000       0.03590000
H        0.22250000       1.20650000      -0.58530000
H       -2.00250000       2.23350000      -0.56560000
C       -0.38490000       1.52750000       1.35570000
C       -0.57110000       3.01190000       1.30210000
N        0.10010000       3.85920000       2.08270000
N       -0.38060000       5.06760000       1.75710000
C       -1.32940000       5.03330000       0.77660000
C       -1.47980000       3.69980000       0.45650000
O       -2.31050000       3.15690000      -0.46450000
H       -1.15300000       1.07090000       1.99380000
H        0.58810000       1.29110000       1.80790000
H       -0.01310000       5.87880000       2.22210000
H       -1.80460000       5.92190000       0.39610000
