14
Properties=species:S:1:pos:R:3 gdb_26742=T pbc="F F F"
N        0.19010000       1.46960000       0.02040000
C        0.00810000       0.07730000      -0.01280000
C       -1.07330000      -0.75700000      -0.03360000
O       -2.37000000      -0.38910000      -0.02640000
N       -0.70400000      -2.08250000      -0.06440000
C        0.60420000      -2.08020000      -0.06300000
N        1.11340000      -0.80590000      -0.03230000
C        2.46670000      -0.45760000      -0.02240000
O        3.35790000      -1.26630000      -0.04080000
H       -0.21590000       1.89060000       0.84930000
H       -0.21240000       1.92920000      -0.78950000
H       -2.88670000      -1.20420000      -0.04600000
H        1.25240000      -2.94150000      -0.08270000
H        2.59950000       0.63440000       0.00340000
