10
Properties=species:S:1:pos:R:3 gdb_132228=T pbc="F F F"
O       -0.16050000       1.26120000       0.01050000
C        0.03920000      -0.04320000       0.00230000
N        1.17690000      -0.60430000      -0.00670000
C        1.22840000      -2.01900000      -0.01490000
O        2.26570000      -2.61560000      -0.02360000
N       -0.02160000      -2.71530000      -0.01220000
C       -1.06510000      -2.02140000      -0.00300000
F       -2.26290000      -2.52770000       0.00050000
O       -1.17250000      -0.66930000       0.00510000
H        0.71480000       1.67720000       0.00830000
