21
Properties=species:S:1:pos:R:3 gdb_116276=T pbc="F F F"
C       -0.13150000       1.66340000      -0.18820000
C       -0.20590000       0.13320000      -0.17340000
C        0.73810000      -0.52080000      -1.18960000
C        2.24940000      -0.35440000      -0.87730000
O        2.86450000      -1.63070000      -1.04360000
C        2.00230000      -2.44480000      -1.81890000
C        0.58590000      -2.06510000      -1.36180000
C        0.24630000      -2.77000000      -0.06560000
O       -0.84230000      -3.21140000       0.20400000
H        0.87260000       2.02220000       0.06310000
H       -0.38730000       2.06140000      -1.17660000
H       -0.82700000       2.09740000       0.53600000
H        0.02570000      -0.23520000       0.83420000
H       -1.23330000      -0.18720000      -0.38230000
H        0.53420000      -0.08000000      -2.17280000
H        2.71570000       0.38170000      -1.54600000
H        2.42820000      -0.03320000       0.15540000
H        2.11920000      -2.25420000      -2.89800000
H        2.26910000      -3.48880000      -1.62550000
H       -0.19250000      -2.30700000      -2.08930000
H        1.09800000      -2.86420000       0.64630000
