19
Properties=species:S:1:pos:R:3 gdb_86450=T pbc="F F F"
C       -0.00830000       1.51850000       0.13480000
C       -0.04080000       0.01730000      -0.09810000
C        0.83070000      -0.46290000      -1.24590000
C        0.82160000      -1.98190000      -1.25370000
C        1.77650000      -2.61450000      -2.25220000
O        1.20010000      -2.48350000       0.04750000
C        0.95130000      -1.82350000       1.19910000
O        1.24370000      -2.30600000       2.25220000
O        0.38970000      -0.59690000       1.13690000
H        1.01640000       1.85770000       0.31250000
H       -0.40660000       2.04480000      -0.73800000
H       -0.61360000       1.78030000       1.00610000
H       -1.07750000      -0.30370000      -0.27400000
H        0.44530000      -0.08010000      -2.19600000
H        1.85560000      -0.09240000      -1.12170000
H       -0.20080000      -2.33500000      -1.45050000
H        2.80070000      -2.27480000      -2.07280000
H        1.75380000      -3.70310000      -2.16120000
H        1.48980000      -2.34340000      -3.27280000
