14
Properties=species:S:1:pos:R:3 gdb_131189=T pbc="F F F"
O        0.15010000       1.35150000      -0.08740000
C        0.07620000       0.01080000      -0.12190000
C       -0.16080000      -0.84560000      -1.17460000
C        0.06920000      -1.45900000      -2.54330000
C        1.36170000      -2.26120000      -2.48250000
C        0.12420000      -2.81120000      -1.82390000
N       -0.14660000      -2.07040000      -0.57690000
N        0.14120000      -2.03050000       0.72750000
N        0.19000000      -0.74400000       1.01390000
H        0.27190000       1.59730000       0.83920000
H       -0.44270000      -1.21990000      -3.46360000
H        1.65200000      -2.76220000      -3.40260000
H        2.18680000      -1.91110000      -1.87120000
H       -0.35950000      -3.75110000      -2.04580000
