17
Properties=species:S:1:pos:R:3 gdb_116131=T pbc="F F F"
O       -0.72120000       1.42270000       0.11240000
C       -0.28860000       0.10210000       0.37990000
C       -1.39700000      -0.95010000       0.19090000
O       -2.33110000      -1.01790000       1.21730000
C       -3.23270000       0.08860000       1.26400000
C       -4.00720000       0.13980000      -0.05140000
C       -3.09760000       0.04070000      -1.26030000
O       -3.34190000       0.51780000      -2.33360000
O       -1.97570000      -0.71910000      -1.11000000
H       -0.83730000       1.50490000      -0.84090000
H        0.56270000      -0.17970000      -0.25530000
H        0.03920000       0.07420000       1.42340000
H       -0.94550000      -1.94560000       0.13740000
H       -3.89630000      -0.10100000       2.11040000
H       -2.69350000       1.02500000       1.43560000
H       -4.68800000      -0.71840000      -0.10510000
H       -4.60600000       1.04740000      -0.14900000
