20
Properties=species:S:1:pos:R:3 gdb_113465=T pbc="F F F"
C        0.27430000       1.53250000       0.09750000
C       -0.24010000       0.12390000      -0.18470000
N        0.52460000      -0.49810000      -1.26310000
C        1.72310000      -1.25450000      -0.88630000
C        0.49840000      -1.93720000      -1.37310000
C       -0.32880000      -3.00590000      -0.59430000
C       -0.47140000      -3.74540000      -1.93650000
O       -1.13330000      -2.85340000      -2.83580000
C        0.28640000      -2.70940000      -2.66120000
H        1.31560000       1.50940000       0.43580000
H        0.22720000       2.14570000      -0.80680000
H       -0.32420000       2.01310000       0.87740000
H       -0.21260000      -0.47720000       0.74130000
H       -1.28660000       0.16360000      -0.50860000
H        2.59060000      -1.12460000      -1.52890000
H        1.95370000      -1.35920000       0.17440000
H        0.26060000      -3.54350000       0.15240000
H       -1.27590000      -2.68060000      -0.15740000
H       -0.56040000      -4.80860000      -2.12220000
H        0.90610000      -2.75810000      -3.54860000
