21
Properties=species:S:1:pos:R:3 gdb_56035=T pbc="F F F"
N        0.46090000       1.21820000      -0.21310000
C        0.29750000      -0.16320000      -0.11570000
O        1.24050000      -0.93300000      -0.10790000
N       -1.01770000      -0.55810000      -0.01130000
C       -1.36990000      -1.93260000       0.29020000
C       -1.65950000      -2.23730000       1.77210000
C       -2.34120000      -3.61530000       1.72590000
C       -3.11090000      -3.65450000       0.36890000
C       -2.65260000      -2.40320000      -0.41970000
H        1.39170000       1.46370000      -0.51610000
H       -0.26450000       1.73490000      -0.68890000
H       -1.69350000       0.14630000       0.24440000
H       -0.51440000      -2.53110000      -0.03420000
H       -0.75700000      -2.21460000       2.38820000
H       -2.34910000      -1.47800000       2.16670000
H       -1.58180000      -4.40370000       1.74830000
H       -2.99680000      -3.78670000       2.58350000
H       -2.87830000      -4.57200000      -0.17890000
H       -4.19380000      -3.64960000       0.51890000
H       -3.40840000      -1.60990000      -0.34860000
H       -2.49310000      -2.59470000      -1.48390000
