12
Properties=species:S:1:pos:R:3 gdb_132468=T pbc="F F F"
O        0.05190000       1.32570000       0.00760000
C       -0.05830000      -0.00480000       0.00110000
C       -1.24130000      -0.66730000       0.00430000
C       -1.18300000      -2.08760000      -0.00360000
C        0.00540000      -2.73970000      -0.01390000
F        0.07820000      -4.06980000      -0.02140000
C        1.27340000      -2.05060000      -0.01750000
O        2.38450000      -2.49280000      -0.02620000
O        1.12230000      -0.63130000      -0.00900000
H        0.99190000       1.55110000       0.00350000
H       -2.17250000      -0.12200000       0.01250000
H       -2.09680000      -2.67170000      -0.00160000
