15
Properties=species:S:1:pos:R:3 gdb_45574=T pbc="F F F"
O        0.00220000      -0.03360000      -0.04170000
C       -0.01370000       1.15330000      -0.02070000
O       -1.13920000       1.91390000      -0.00030000
C       -0.81950000       3.30190000       0.07020000
C       -1.16260000       3.89140000       1.44360000
O       -0.01680000       3.66100000       2.24730000
C        1.09970000       3.92230000       1.41250000
C        0.73520000       3.32310000       0.04890000
O        1.09070000       1.94440000      -0.03090000
H       -1.30540000       3.81350000      -0.76220000
H       -1.36600000       4.97010000       1.34290000
H       -2.02220000       3.40200000       1.90440000
H        1.27070000       5.00620000       1.30660000
H        1.98470000       3.45680000       1.84930000
H        1.18390000       3.84750000      -0.79640000
