14
Properties=species:S:1:pos:R:3 gdb_129489=T pbc="F F F"
N       -0.17180000       1.32250000       0.04690000
C        0.03340000      -0.01220000      -0.00630000
O        1.10180000      -0.57890000      -0.06860000
N       -1.17960000      -0.75160000       0.01710000
C       -1.28100000      -2.10960000      -0.02670000
C       -2.61470000      -2.41900000       0.01700000
C       -3.25870000      -1.15520000       0.08790000
O       -4.58850000      -0.97120000       0.14880000
N       -2.40740000      -0.14650000       0.08860000
H        0.63100000       1.92490000       0.04050000
H       -1.10790000       1.68750000       0.10170000
H       -0.39080000      -2.71330000      -0.08440000
H       -3.07550000      -3.39190000       0.00160000
H       -4.75050000      -0.02010000       0.18910000
