18
Properties=species:S:1:pos:R:3 gdb_112782=T pbc="F F F"
C        0.00410000       1.29810000      -0.25580000
O       -0.02050000      -0.01450000       0.26630000
C       -1.27380000      -0.61550000       0.19620000
C       -1.80290000      -1.10780000      -1.18010000
C       -2.23060000      -2.42820000      -0.51360000
O       -1.94150000      -3.55400000      -1.28560000
C       -1.30230000      -2.08390000       0.72460000
C       -0.02250000      -2.76900000       0.69740000
N        0.97150000      -3.35850000       0.69370000
H        1.02130000       1.67340000      -0.12850000
H       -0.25180000       1.31840000      -1.32490000
H       -0.69270000       1.95930000       0.28240000
H       -2.02780000      -0.01240000       0.72520000
H       -2.56860000      -0.52230000      -1.69070000
H       -0.96550000      -1.30300000      -1.85560000
H       -3.27940000      -2.41000000      -0.18800000
H       -2.14010000      -4.34850000      -0.77820000
H       -1.75420000      -2.21590000       1.71080000
