18
Properties=species:S:1:pos:R:3 gdb_65405=T pbc="F F F"
C        0.06850000       1.53330000      -0.18520000
C        0.00850000       0.02410000       0.00410000
C        1.29330000      -0.79960000      -0.01270000
C        0.52870000      -0.66250000       1.26820000
C        1.06780000       0.13430000       2.44900000
C        1.92150000      -0.68150000       3.30720000
C        2.61670000      -1.37240000       4.00190000
C       -1.15320000      -0.58960000      -0.59390000
N       -2.09090000      -1.07050000      -1.07190000
H        0.99320000       1.94620000       0.22320000
H        0.03460000       1.78300000      -1.24960000
H       -0.77580000       2.02820000       0.30410000
H        1.28750000      -1.75300000      -0.52660000
H        2.21180000      -0.23170000      -0.12060000
H       -0.03920000      -1.53730000       1.56810000
H        1.63500000       1.00420000       2.09990000
H        0.23050000       0.53140000       3.03740000
H        3.23400000      -1.97460000       4.62160000
