17
Properties=species:S:1:pos:R:3 gdb_27233=T pbc="F F F"
C        0.09040000       1.49720000       0.12020000
C       -0.07130000       0.02670000       0.08360000
C       -1.09110000      -0.83340000       0.02110000
C       -2.46600000      -1.28720000      -0.43590000
C       -1.76720000      -2.67500000      -0.70510000
N       -0.58230000      -2.13740000       0.00100000
C        0.79180000      -2.09010000      -0.11350000
N        1.60000000      -3.03950000      -0.32950000
O        1.10740000      -0.74830000       0.10870000
H        0.71990000       1.84930000      -0.70520000
H       -0.88710000       1.97960000       0.04250000
H        0.56060000       1.82980000       1.05350000
H       -3.22690000      -1.32510000       0.34680000
H       -2.87120000      -0.77950000      -1.31190000
H       -2.20690000      -3.55360000      -0.23020000
H       -1.57810000      -2.87520000      -1.76380000
H        2.55700000      -2.69590000      -0.35260000
