19
Properties=species:S:1:pos:R:3 gdb_104517=T pbc="F F F"
C        0.40090000      -0.65000000       1.54710000
O        0.04290000      -0.49120000       0.17830000
C       -1.28920000      -0.82100000      -0.11670000
C       -2.37010000      -0.04750000       0.62860000
C       -2.30930000       1.39400000       0.40720000
C       -2.24570000       2.57970000       0.22330000
C       -1.49170000      -1.19110000      -1.56460000
C       -1.49470000      -2.27000000      -0.50070000
O       -0.42550000      -3.15680000      -0.38640000
H        1.48530000      -0.52900000       1.59890000
H       -0.06410000       0.11720000       2.17870000
H        0.12950000      -1.64460000       1.92340000
H       -3.34470000      -0.43200000       0.30470000
H       -2.31130000      -0.25830000       1.70400000
H       -2.19150000       3.62700000       0.05750000
H       -2.42270000      -0.90970000      -2.04510000
H       -0.61350000      -1.13330000      -2.19900000
H       -2.43100000      -2.76150000      -0.25550000
H        0.37490000      -2.61580000      -0.39230000
