23
Properties=species:S:1:pos:R:3 gdb_73447=T pbc="F F F"
C       -0.02260000       1.45180000       0.05630000
C       -0.00850000      -0.05660000      -0.02600000
C        1.04530000      -0.72040000      -0.92200000
C        0.38840000      -2.05270000      -1.36910000
C       -0.72360000      -2.26770000      -0.33580000
C       -0.14240000      -2.30600000       1.11480000
C       -0.44320000      -0.81410000       1.22930000
C       -1.29580000      -0.84530000      -0.03630000
C       -2.68170000      -0.35630000      -0.33240000
H        0.92710000       1.83150000       0.45140000
H       -0.17210000       1.90400000      -0.93150000
H       -0.81750000       1.81740000       0.71430000
H        1.28430000      -0.07930000      -1.77740000
H        1.98550000      -0.88680000      -0.38350000
H       -0.04470000      -1.94830000      -2.37100000
H        1.09660000      -2.88730000      -1.40320000
H       -1.43360000      -3.05780000      -0.58560000
H       -0.77260000      -2.89280000       1.78880000
H        0.89670000      -2.63960000       1.22710000
H       -0.62430000      -0.27040000       2.15160000
H       -2.82850000       0.67070000       0.01730000
H       -2.88680000      -0.36750000      -1.41040000
H       -3.44200000      -0.98030000       0.15200000
