20
Properties=species:S:1:pos:R:3 gdb_66450=T pbc="F F F"
C        0.04570000       1.40530000      -0.00840000
C        0.00770000      -0.08780000      -0.01050000
C       -0.98810000      -0.97070000       0.75250000
C        0.51380000      -1.10740000       0.96910000
C        0.50380000      -2.07790000      -0.23700000
C        1.46870000      -3.17260000      -0.56180000
C       -1.07060000      -2.14770000      -0.24450000
C       -1.01260000      -1.49100000      -1.63410000
N        0.31920000      -0.90230000      -1.23220000
H        1.03130000       1.77420000      -0.31010000
H       -0.69560000       1.81870000      -0.70240000
H       -0.17680000       1.79610000       0.99010000
H       -1.74210000      -0.58050000       1.42310000
H        1.13380000      -1.01730000       1.85180000
H        1.45210000      -3.94840000       0.21170000
H        1.22260000      -3.64190000      -1.52050000
H        2.48790000      -2.77800000      -0.63140000
H       -1.65970000      -3.03000000       0.00800000
H       -0.86660000      -2.20260000      -2.45220000
H       -1.77990000      -0.76060000      -1.90990000
