18
Properties=species:S:1:pos:R:3 gdb_66768=T pbc="F F F"
C        0.01660000       1.55640000       0.01400000
C        0.01790000       0.05490000      -0.03940000
C        0.53590000      -0.91620000      -1.15470000
C        0.85330000      -1.89330000      -0.08550000
C        0.75320000      -0.83300000       1.01580000
O       -0.12830000      -1.12400000       2.07960000
C       -1.43800000      -1.23990000       1.49210000
C       -1.24210000      -0.84190000       0.03360000
N       -0.50090000      -1.90520000      -0.74890000
H        1.02960000       1.96060000      -0.08960000
H       -0.59800000       1.98730000      -0.78400000
H       -0.38390000       1.90660000       0.97210000
H        0.89680000      -0.79460000      -2.16640000
H        1.42220000      -2.81340000      -0.11840000
H        1.70050000      -0.46500000       1.41090000
H       -1.80230000      -2.27220000       1.57210000
H       -2.12960000      -0.57950000       2.02960000
H       -2.13690000      -0.52450000      -0.50330000
