23
Properties=species:S:1:pos:R:3 gdb_96199=T pbc="F F F"
C        0.03950000       1.59750000      -0.07830000
C       -0.01710000       0.06360000      -0.05230000
C        0.78410000      -0.49040000      -1.24080000
O        0.62920000      -1.87140000      -1.48220000
C        1.30000000      -2.72210000      -0.56530000
C        0.60230000      -2.91480000       0.76100000
C        0.22990000      -1.93840000       1.59230000
C       -0.46340000      -2.24110000       2.89490000
C        0.47940000      -0.46770000       1.30860000
H        1.06730000       1.95820000       0.05050000
H       -0.33500000       1.99420000      -1.02770000
H       -0.56410000       2.02900000       0.72620000
H       -1.05860000      -0.25520000      -0.18720000
H        0.45230000       0.00530000      -2.16010000
H        1.85340000      -0.24510000      -1.10250000
H        1.38530000      -3.68690000      -1.07400000
H        2.32850000      -2.34960000      -0.40700000
H        0.39940000      -3.94540000       1.04490000
H       -0.58160000      -3.31590000       3.05500000
H        0.09750000      -1.82760000       3.74360000
H       -1.45860000      -1.77840000       2.92970000
H        1.55870000      -0.26160000       1.38710000
H        0.01080000       0.12650000       2.10130000
