16
Properties=species:S:1:pos:R:3 gdb_12406=T pbc="F F F"
O        0.01030000       1.41660000       0.08080000
C       -0.01080000       0.02180000      -0.00990000
C       -1.44010000      -0.54600000       0.00710000
C       -1.40320000      -2.05040000      -0.25900000
O       -0.80220000      -2.33520000      -1.51570000
C        0.55550000      -1.93920000      -1.58350000
C        0.71440000      -0.45790000      -1.26090000
O        1.36120000       0.31310000      -1.93460000
H        0.61600000       1.71160000      -0.61770000
H        0.53980000      -0.43120000       0.83860000
H       -1.91260000      -0.33060000       0.97110000
H       -2.02680000      -0.04800000      -0.77210000
H       -0.86150000      -2.57420000       0.54750000
H       -2.41270000      -2.46570000      -0.30930000
H        1.17550000      -2.52400000      -0.87950000
H        0.90830000      -2.12950000      -2.59890000
