15
Properties=species:S:1:pos:R:3 gdb_18657=T pbc="F F F"
O       -0.13740000       0.23500000       0.80450000
C       -0.11500000       1.25580000       0.16170000
C       -1.35200000       1.93110000      -0.42140000
C       -1.37190000       3.37580000       0.04150000
C       -0.24140000       4.05950000       0.22610000
C        1.06450000       3.41440000      -0.05490000
C        1.80500000       2.59890000       0.97520000
N        1.06940000       1.96040000      -0.10420000
H       -1.33360000       1.87810000      -1.51820000
H       -2.23020000       1.38020000      -0.08030000
H       -2.33810000       3.83250000       0.23490000
H       -0.24760000       5.09850000       0.54130000
H        1.67540000       3.89320000      -0.82150000
H        2.88790000       2.52550000       0.92490000
H        1.37770000       2.52540000       1.97140000
