19
Properties=species:S:1:pos:R:3 gdb_115305=T pbc="F F F"
C       -0.23570000       1.54530000       0.02590000
C        0.17470000       0.07850000      -0.04490000
C        1.24470000      -0.30670000      -1.07200000
O        1.84520000      -1.51090000      -0.57490000
C        1.87870000      -1.45350000       0.85150000
C        3.27440000      -1.04130000       1.33740000
O        4.25310000      -1.92330000       0.83570000
C        0.80070000      -0.44680000       1.25020000
O        0.53070000      -0.10890000       2.37320000
H        0.64100000       2.19370000       0.12560000
H       -0.78400000       1.85010000      -0.86990000
H       -0.87290000       1.71130000       0.89830000
H       -0.71070000      -0.55110000      -0.21730000
H        0.85060000      -0.52720000      -2.06630000
H        1.99330000       0.49530000      -1.16790000
H        1.64850000      -2.45360000       1.23630000
H        3.47830000       0.00120000       1.04080000
H        3.30520000      -1.08630000       2.42970000
H        4.07880000      -2.00250000      -0.11050000
