15
Properties=species:S:1:pos:R:3 gdb_10285=T pbc="F F F"
C       -0.03700000       1.48580000      -0.20820000
N       -0.16830000       0.17930000       0.42040000
C       -1.42580000      -0.49760000       0.23040000
C       -1.92650000      -0.52380000      -1.17040000
N       -2.29750000      -0.52060000      -2.26590000
C       -1.26690000      -1.97090000       0.70450000
N       -2.43260000      -2.59140000       1.01730000
O       -0.17530000      -2.48820000       0.78140000
H        0.96310000       1.87330000       0.00100000
H       -0.19040000       1.48300000      -1.29890000
H       -0.76120000       2.18190000       0.23070000
H        0.58010000      -0.45970000       0.17340000
H       -2.20530000      -0.00940000       0.83240000
H       -3.32370000      -2.17780000       0.80010000
H       -2.40260000      -3.58250000       1.19770000
