14
Properties=species:S:1:pos:R:3 gdb_17933=T pbc="F F F"
N       -0.27260000       1.55070000       0.05750000
C       -0.11630000       0.15130000      -0.01660000
C       -1.11250000      -0.93140000      -0.22720000
C       -0.75690000      -1.56900000      -1.59490000
N        0.75090000      -1.62810000      -1.55610000
C        0.99120000      -0.84600000      -0.58990000
O        1.37530000      -1.32210000       0.67510000
C       -0.02840000      -0.89730000       0.98980000
H        0.56190000       2.00240000       0.41810000
H       -0.47700000       1.95130000      -0.85220000
H       -2.14450000      -0.81820000       0.10000000
H       -1.07160000      -2.61270000      -1.68480000
H       -1.19650000      -1.00690000      -2.43360000
H       -0.30130000      -0.96500000       2.03610000
