21
Properties=species:S:1:pos:R:3 gdb_119356=T pbc="F F F"
C        0.02570000       1.46910000      -0.09860000
C        0.01090000      -0.04700000      -0.01260000
O        0.67310000      -0.56260000      -1.16040000
C        0.73050000      -1.93190000      -1.22330000
C       -0.45320000      -2.95750000      -1.30670000
C        0.85640000      -3.77150000      -1.41230000
O        0.86800000      -5.14300000      -1.55930000
C        1.39880000      -2.68340000      -2.39600000
C        1.43670000      -2.92230000      -0.23670000
H        1.05340000       1.84210000      -0.12790000
H       -0.48710000       1.80700000      -1.00360000
H       -0.47790000       1.90410000       0.76980000
H        0.52070000      -0.39080000       0.90020000
H       -1.02190000      -0.42500000       0.02560000
H       -1.04690000      -3.11450000      -0.40280000
H       -1.07330000      -2.91460000      -2.20550000
H        1.78410000      -5.43710000      -1.60140000
H        0.90360000      -2.61080000      -3.36740000
H        2.48510000      -2.58520000      -2.47770000
H        2.52620000      -2.84680000      -0.17130000
H        0.97460000      -3.07340000       0.74210000
