14
Properties=species:S:1:pos:R:3 gdb_77349=T pbc="F F F"
O       -0.01790000       1.58840000      -0.37150000
C       -0.02330000       0.23820000       0.04340000
C       -1.46980000      -0.27900000       0.00930000
O       -1.66660000      -0.85930000      -1.28000000
C       -0.44760000      -1.44820000      -1.70840000
C        0.65410000      -0.63000000      -1.04450000
O        1.81830000      -0.58080000      -1.33240000
C       -1.71510000      -1.27480000       1.07230000
N       -1.89390000      -2.06660000       1.89420000
H        0.89240000       1.81620000      -0.59920000
H        0.45800000       0.09760000       1.01890000
H       -2.17820000       0.54630000       0.11230000
H       -0.36560000      -2.50060000      -1.39360000
H       -0.39230000      -1.40170000      -2.79820000
