14
Properties=species:S:1:pos:R:3 gdb_11187=T pbc="F F F"
O        0.06600000       0.01480000      -0.19470000
C        0.01520000       1.21630000      -0.07890000
N       -1.09100000       2.03010000      -0.27170000
C       -0.83840000       3.38580000       0.17760000
C        0.71360000       3.46180000       0.06050000
N        1.06750000       2.06050000       0.28870000
C        1.16930000       3.97440000      -1.23460000
C        1.56940000       4.39310000      -2.28760000
H       -1.99910000       1.60530000      -0.17770000
H       -1.32590000       4.13170000      -0.45320000
H       -1.13740000       3.54910000       1.22240000
H        1.11840000       4.09570000       0.85620000
H        1.99320000       1.74330000       0.04250000
H        1.91740000       4.75790000      -3.22270000
