23
Properties=species:S:1:pos:R:3 gdb_117727=T pbc="F F F"
C        0.87740000       1.34010000      -0.28180000
O        1.05570000      -0.05120000      -0.39410000
C       -0.07500000      -0.71050000      -0.92260000
C        0.20320000      -2.21450000      -0.98250000
C        0.42710000      -2.79640000       0.41910000
O       -0.96270000      -2.77450000      -1.58130000
C        1.40650000      -2.49220000      -1.89490000
O        1.44470000      -3.89320000      -2.10920000
C        2.44730000      -4.29470000      -3.01290000
H        0.68630000       1.80770000      -1.26060000
H        0.03790000       1.59020000       0.38590000
H        1.79750000       1.75650000       0.13560000
H       -0.96450000      -0.53440000      -0.29630000
H       -0.30690000      -0.34500000      -1.93580000
H       -0.49640000      -2.71660000       0.99940000
H        0.70790000      -3.85060000       0.35170000
H        1.21920000      -2.25240000       0.94060000
H       -0.69500000      -3.64370000      -1.90490000
H        1.27200000      -1.96860000      -2.85520000
H        2.33940000      -2.13710000      -1.43650000
H        2.30800000      -3.83660000      -4.00430000
H        3.45090000      -4.02750000      -2.64860000
H        2.38450000      -5.38120000      -3.11160000
