18
Properties=species:S:1:pos:R:3 gdb_33136=T pbc="F F F"
C        0.02690000       1.52840000      -0.10590000
C        0.01720000       0.01250000      -0.04910000
O        0.65430000      -0.48350000      -1.22130000
C        0.72610000      -1.83290000      -1.31800000
C        0.29670000      -2.82500000      -0.48740000
O        0.61820000      -4.03720000      -1.01950000
C        1.25930000      -3.80320000      -2.20480000
C        1.35710000      -2.46620000      -2.44450000
N        1.86790000      -1.76990000      -3.54680000
H        1.05210000       1.90680000      -0.14720000
H       -0.50840000       1.88420000      -0.99050000
H       -0.45900000       1.94110000       0.78310000
H        0.55190000      -0.35580000       0.83910000
H       -1.01070000      -0.37640000      -0.00320000
H       -0.21610000      -2.83690000       0.45770000
H        1.57690000      -4.67460000      -2.75160000
H        2.65560000      -2.23020000      -3.98310000
H        2.11810000      -0.82100000      -3.29920000
