16
Properties=species:S:1:pos:R:3 gdb_42867=T pbc="F F F"
N       -0.03320000       1.14950000       0.54740000
C       -0.00380000      -0.00370000       0.03480000
C       -1.28950000      -0.79020000      -0.20510000
C       -1.02270000      -2.14760000      -0.88140000
C        0.01190000      -1.91870000      -2.03140000
C        1.11150000      -1.89560000      -0.93880000
O        1.18150000      -0.60120000      -0.32060000
C        0.14620000      -2.80390000      -0.12670000
O        0.27520000      -3.71830000       0.62900000
H        0.91280000       1.52460000       0.63980000
H       -1.79030000      -0.92440000       0.75840000
H       -1.95340000      -0.17820000      -0.82340000
H       -1.93360000      -2.72000000      -1.05810000
H        0.11230000      -2.78520000      -2.68840000
H       -0.09410000      -1.00460000      -2.61920000
H        2.13460000      -2.20170000      -1.14980000
