21
Properties=species:S:1:pos:R:3 gdb_76310=T pbc="F F F"
C        0.78450000       1.56860000      -0.15500000
C        0.16720000       0.18980000       0.04880000
C        0.70760000      -0.94140000      -0.88430000
O        1.35940000      -0.59950000      -2.08120000
C        1.53260000      -1.54900000       0.29570000
C        3.03550000      -1.29800000       0.25200000
C        0.69510000      -0.64420000       1.27810000
C        1.38210000       0.04730000       2.34840000
C        1.96240000       0.62800000       3.22850000
H        1.87760000       1.55800000      -0.09570000
H        0.50000000       1.96860000      -1.13320000
H        0.43640000       2.26310000       0.61460000
H       -0.92230000       0.28640000       0.03620000
H       -0.09820000      -1.61680000      -1.18480000
H        2.08410000      -0.00080000      -1.87470000
H        1.35840000      -2.61800000       0.44870000
H        3.28680000      -0.23650000       0.15950000
H        3.51140000      -1.65300000       1.17040000
H        3.48230000      -1.82910000      -0.59420000
H       -0.12660000      -1.22900000       1.70370000
H        2.46740000       1.13580000       4.01240000
