19
Properties=species:S:1:pos:R:3 gdb_74430=T pbc="F F F"
C        0.04650000       1.52820000       0.10320000
C       -0.01170000       0.03450000      -0.02420000
C       -1.13220000      -0.68400000       0.05400000
C       -1.09030000      -2.16930000       0.00370000
O       -1.67870000      -2.83130000       1.09630000
C       -1.05960000      -2.91210000      -1.32290000
C        0.19030000      -2.76510000      -0.48250000
O        1.17910000      -1.90180000      -0.96240000
C        1.30570000      -0.68510000      -0.24160000
H        0.72810000       1.82820000       0.91000000
H        0.42830000       1.99300000      -0.81500000
H       -0.93820000       1.95080000       0.31910000
H       -2.09930000      -0.20620000       0.19940000
H       -2.63360000      -2.81850000       0.96680000
H       -1.53110000      -3.88880000      -1.35160000
H       -1.10230000      -2.32980000      -2.23610000
H        0.56500000      -3.64280000       0.04020000
H        1.98330000      -0.06380000      -0.83720000
H        1.79780000      -0.85380000       0.73270000
