16
Properties=species:S:1:pos:R:3 gdb_85389=T pbc="F F F"
C       -0.14290000       1.41680000       0.02010000
C       -0.03700000      -0.08830000       0.02630000
O        0.56330000      -0.49980000      -1.19310000
C        0.90910000      -1.82300000      -1.28270000
N        1.36700000      -2.34290000      -2.33550000
C        0.73270000      -2.60260000      -0.00270000
C        1.12440000      -1.78650000       1.21800000
O        1.70710000      -2.20200000       2.17430000
O        0.75780000      -0.47390000       1.14470000
H        0.85450000       1.85340000      -0.06780000
H       -0.75370000       1.74050000      -0.82520000
H       -0.60300000       1.75780000       0.94970000
H       -1.02430000      -0.56320000       0.11750000
H        1.40480000      -1.65490000      -3.09000000
H       -0.32660000      -2.87620000       0.10780000
H        1.31130000      -3.52270000      -0.03700000
