19
Properties=species:S:1:pos:R:3 gdb_92944=T pbc="F F F"
C       -0.03010000       1.43440000      -0.12250000
N       -0.08330000       0.00620000       0.12200000
C       -1.41930000      -0.59330000       0.11670000
C       -1.22720000      -1.84650000       0.92260000
C       -0.06080000      -1.82340000       1.55520000
C        0.69160000      -0.53750000       1.24730000
C        2.16490000      -0.76360000       0.86540000
C        0.63240000       0.34300000       2.45180000
N        0.56500000       1.05790000       3.35890000
H        1.00950000       1.76730000      -0.19320000
H       -0.51070000       1.64910000      -1.08210000
H       -0.52900000       2.03470000       0.65700000
H       -2.18720000       0.05430000       0.58250000
H       -1.75130000      -0.78560000      -0.91280000
H       -1.96950000      -2.63250000       0.97790000
H        0.34120000      -2.56590000       2.23170000
H        2.20440000      -1.43880000       0.00800000
H        2.64800000       0.17950000       0.59620000
H        2.72010000      -1.20040000       1.70060000
