17
Properties=species:S:1:pos:R:3 gdb_26949=T pbc="F F F"
C        0.23900000       1.51430000       0.35150000
C       -0.02180000       0.07520000       0.10290000
C       -1.11640000      -0.67230000      -0.20210000
N       -0.73470000      -2.01200000      -0.31160000
C        0.53390000      -2.00390000      -0.07920000
O        1.05180000      -0.78530000       0.17910000
C       -2.52140000      -0.27190000      -0.38900000
C       -3.36560000      -0.98860000      -1.38560000
N       -3.59270000      -1.18880000       0.05070000
H        0.91660000       1.93800000      -0.39850000
H       -0.69790000       2.07440000       0.31590000
H        0.69470000       1.67300000       1.33510000
H        1.21820000      -2.83780000      -0.06470000
H       -2.73110000       0.77590000      -0.19130000
H       -4.15250000      -0.45090000      -1.90740000
H       -2.88880000      -1.78530000      -1.94900000
H       -3.15460000      -2.06620000       0.32800000
