22
Properties=species:S:1:pos:R:3 gdb_67216=T pbc="F F F"
C       -0.13890000       1.52000000      -0.04500000
C        0.05850000       0.04320000       0.01050000
C        0.38430000      -0.98090000      -1.01200000
C        1.46380000      -1.60390000      -0.12750000
C        0.69080000      -0.97210000       1.05540000
C       -0.69980000      -1.66340000       1.01980000
C       -0.80410000      -3.18450000       0.99620000
C       -1.66050000      -1.08310000       2.05580000
N       -0.95880000      -0.99360000      -0.31050000
H        0.82140000       2.04700000      -0.07640000
H       -0.70390000       1.78450000      -0.94440000
H       -0.69590000       1.89070000       0.82260000
H        0.34980000      -0.90220000      -2.09120000
H        1.62840000      -2.68520000      -0.13120000
H        2.41750000      -1.09420000      -0.29230000
H        1.19190000      -0.74000000       1.99510000
H       -0.44340000      -3.61310000       1.93810000
H       -1.85040000      -3.48290000       0.87070000
H       -0.23690000      -3.63050000       0.17750000
H       -1.57720000       0.00510000       2.12150000
H       -2.69540000      -1.32680000       1.79570000
H       -1.44930000      -1.49880000       3.04700000
