12
Properties=species:S:1:pos:R:3 gdb_73=T pbc="F F F"
C       -0.00220000       1.53340000      -0.05960000
C       -0.03240000       0.01210000       0.06840000
C        0.69670000      -0.48200000       1.31830000
N        0.98100000      -1.82030000       1.31980000
O        1.00390000       0.24610000       2.24140000
H        1.02110000       1.89530000      -0.19180000
H       -0.59710000       1.86210000      -0.91650000
H       -0.39730000       1.99920000       0.84550000
H       -1.06940000      -0.34550000       0.13040000
H        0.39950000      -0.46910000      -0.81780000
H        0.63280000      -2.43920000       0.60870000
H        1.35710000      -2.22220000       2.16300000
