21
Properties=species:S:1:pos:R:3 gdb_114632=T pbc="F F F"
C        0.18510000       1.37370000       0.12650000
O       -0.26500000       0.09270000      -0.25250000
C        0.55280000      -0.52200000      -1.21590000
C        1.90810000      -1.16720000      -0.74710000
C        1.37670000      -2.52550000      -1.21760000
C        0.10210000      -2.84630000      -0.49210000
C        0.05160000      -1.89190000      -1.66350000
C       -0.79600000      -2.13160000      -2.87610000
O       -2.09590000      -1.57090000      -2.74750000
H        1.18560000       1.34190000       0.58420000
H        0.22200000       2.06130000      -0.73300000
H       -0.52380000       1.76480000       0.86030000
H        0.70680000       0.15370000      -2.07050000
H        2.76800000      -0.80280000      -1.31340000
H        2.12460000      -1.09100000       0.32330000
H        1.95350000      -3.28620000      -1.72920000
H       -0.31340000      -3.82960000      -0.69190000
H       -0.06030000      -2.48160000       0.51800000
H       -0.35630000      -1.65100000      -3.75850000
H       -0.84040000      -3.21400000      -3.08510000
H       -2.40270000      -1.76410000      -1.85530000
