21
Properties=species:S:1:pos:R:3 gdb_60576=T pbc="F F F"
C        0.21780000       1.48830000      -0.24580000
C        0.11180000       0.01960000       0.07360000
O        1.33240000      -0.72250000       0.22560000
C        0.46930000      -0.59780000       1.35920000
C        0.99730000       0.16010000       2.56420000
O       -0.09650000       0.62280000       3.35680000
C        1.97170000      -0.68000000       3.35780000
C        3.42860000      -0.71090000       2.97020000
C        3.00000000      -0.01630000       4.23710000
H        0.98330000       1.98450000       0.35340000
H        0.47400000       1.62580000      -1.30150000
H       -0.74140000       1.98450000      -0.06410000
H       -0.63790000      -0.51080000      -0.51810000
H       -0.04920000      -1.52490000       1.62510000
H        1.51190000       1.06330000       2.22200000
H       -0.42030000      -0.12100000       3.87590000
H        1.55200000      -1.61840000       3.71910000
H        3.95730000      -1.65390000       3.04940000
H        3.73300000      -0.10280000       2.12580000
H        3.01480000       1.06830000       4.25780000
H        3.24030000      -0.48080000       5.18700000
