20
Properties=species:S:1:pos:R:3 gdb_17110=T pbc="F F F"
C       -0.04440000       1.54360000       0.10520000
C        0.10360000       0.02770000      -0.05860000
C        0.75300000      -0.62690000       1.15460000
O       -0.02340000      -0.39860000       2.36400000
C       -0.20450000      -1.73520000       2.86060000
C        1.19540000      -2.37640000       2.69050000
C        0.82680000      -2.16480000       1.18650000
C       -0.63360000      -2.53310000       1.60670000
H        0.93140000       2.02490000       0.23550000
H       -0.52330000       1.99130000      -0.77070000
H       -0.65050000       1.77360000       0.98550000
H       -0.87830000      -0.42170000      -0.24230000
H        0.72400000      -0.19680000      -0.93670000
H        1.75230000      -0.18920000       1.29780000
H       -0.76250000      -1.70730000       3.79530000
H        2.04840000      -1.82720000       3.09700000
H        1.23250000      -3.42850000       2.97780000
H        1.35400000      -2.66030000       0.37190000
H       -0.75290000      -3.60150000       1.79430000
H       -1.47170000      -2.14580000       1.02480000
