18
Properties=species:S:1:pos:R:3 gdb_83400=T pbc="F F F"
C       -0.03160000       1.53940000      -0.10760000
C        0.08570000       0.03390000      -0.04400000
C        1.37340000      -0.74590000      -0.17960000
C        2.50340000      -0.06690000       0.58740000
O        1.68670000       0.04460000       1.78920000
C        0.63010000      -0.69250000       1.15200000
C       -0.08250000      -1.76550000       1.90120000
N        0.35840000      -1.91170000       3.17800000
O       -0.96550000      -2.43130000       1.39010000
H        0.73310000       2.02450000       0.50370000
H        0.06620000       1.89850000      -1.13730000
H       -1.00770000       1.86100000       0.26890000
H       -0.74550000      -0.52200000      -0.47090000
H        1.48530000      -1.58820000      -0.84860000
H        3.36060000      -0.72340000       0.76950000
H        2.85230000       0.91030000       0.23660000
H        1.12220000      -1.35010000       3.51470000
H       -0.05430000      -2.62040000       3.76030000
