15
Properties=species:S:1:pos:R:3 gdb_51844=T pbc="F F F"
O       -0.09120000      -0.01520000       0.08080000
C       -0.02770000       1.16990000      -0.11550000
C        1.26810000       1.95990000      -0.12880000
C        1.38520000       2.85660000      -1.37410000
O        0.37120000       3.84840000      -1.44550000
C        0.94770000       5.08270000      -1.07740000
O        2.35540000       4.96630000      -1.24240000
C        2.68900000       3.65370000      -1.36770000
O        3.80970000       3.25320000      -1.44260000
H       -0.93980000       1.77790000      -0.29920000
H        1.28750000       2.59340000       0.76900000
H        2.11560000       1.27140000      -0.08300000
H        1.33920000       2.24750000      -2.28290000
H        0.57180000       5.86790000      -1.73900000
H        0.73720000       5.33360000      -0.02760000
