18
Properties=species:S:1:pos:R:3 gdb_46303=T pbc="F F F"
O        0.03040000       0.01800000      -0.04530000
C       -0.05240000       1.20610000       0.03800000
C       -1.18400000       2.21520000       0.27230000
N       -0.14150000       3.25190000       0.49810000
C        0.97490000       2.36210000       0.02040000
C        2.22310000       2.23420000       0.92570000
C        3.40840000       2.84090000       0.13170000
C        2.85460000       2.98840000      -1.26180000
C        1.55240000       2.71200000      -1.32800000
H       -1.81230000       2.34850000      -0.61960000
H       -1.83540000       2.02370000       1.13190000
H       -0.25880000       4.08270000      -0.07250000
H        2.04320000       2.72520000       1.88350000
H        2.40360000       1.17240000       1.11970000
H        3.72980000       3.81300000       0.52850000
H        4.29360000       2.19530000       0.15720000
H        3.46340000       3.30420000      -2.10250000
H        0.93750000       2.76550000      -2.22020000
