16
Properties=species:S:1:pos:R:3 gdb_98506=T pbc="F F F"
O        0.10280000       1.38100000      -0.18280000
C        0.00470000       0.00210000      -0.36110000
C       -1.31790000      -0.52940000       0.15820000
O       -2.12670000       0.23040000       0.65120000
C       -1.60730000      -1.99920000       0.05310000
C       -2.47640000      -2.59320000       1.17690000
C       -3.08540000      -2.37800000      -0.15430000
C       -0.60610000      -2.84210000      -0.54120000
N        0.20420000      -3.51470000      -1.02060000
H       -0.72690000       1.65070000       0.24050000
H        0.09360000      -0.27830000      -1.42410000
H        0.81740000      -0.53410000       0.15680000
H       -2.22880000      -3.60080000       1.48700000
H       -2.71840000      -1.89160000       1.96610000
H       -3.74590000      -1.52860000      -0.28010000
H       -3.27160000      -3.23240000      -0.79320000
