18
Properties=species:S:1:pos:R:3 gdb_106188=T pbc="F F F"
O       -0.00980000       1.38570000      -0.27680000
C        0.00870000      -0.00980000       0.00700000
C       -1.40070000      -0.49130000       0.00990000
C       -2.04640000      -1.86360000      -0.06790000
N       -2.88950000      -1.59820000       1.10160000
C       -2.53530000      -0.14100000       1.00880000
C       -3.53380000       0.60840000       0.13470000
O       -3.51760000      -0.11820000      -1.10510000
C       -2.29200000      -0.81410000      -1.14820000
H        0.88370000       1.72540000      -0.16750000
H        0.58670000      -0.56770000      -0.74770000
H        0.47590000      -0.20680000       0.98520000
H       -1.60540000      -2.83930000      -0.24780000
H       -3.87860000      -1.77070000       0.91780000
H       -2.28780000       0.33120000       1.96110000
H       -4.55710000       0.59250000       0.52600000
H       -3.22070000       1.65200000      -0.01980000
H       -1.89480000      -0.95450000      -2.14670000
