19
Properties=species:S:1:pos:R:3 gdb_81250=T pbc="F F F"
O       -0.08190000       1.51200000       0.03090000
C        0.08790000       0.11810000       0.09430000
C       -0.04490000      -0.61230000       1.45570000
C       -1.57650000      -0.20430000       1.43970000
C       -1.22310000      -0.72880000       0.01650000
O       -1.86980000      -1.12370000      -1.14220000
C       -1.13990000      -2.29540000      -1.60450000
C        0.02520000      -2.61890000      -0.59030000
C       -0.49150000      -1.89590000       0.65870000
H        0.75420000       1.92830000       0.26120000
H        0.91620000      -0.20470000      -0.54380000
H        0.62500000      -0.55130000       2.31160000
H       -2.24470000      -0.83290000       2.03240000
H       -1.78670000       0.85740000       1.54740000
H       -1.85350000      -3.12460000      -1.66840000
H       -0.75730000      -2.09430000      -2.61020000
H        0.12920000      -3.69720000      -0.44970000
H        0.97840000      -2.24560000      -0.96860000
H       -1.14290000      -2.54540000       1.24960000
