20
Properties=species:S:1:pos:R:3 gdb_60443=T pbc="F F F"
C        0.57760000      -0.22470000      -0.45470000
C       -0.14780000      -0.34160000       0.88230000
O       -0.01740000       0.83350000       1.67180000
C       -1.63240000      -0.67960000       0.71900000
O       -1.75460000      -1.94220000       0.09350000
C       -3.08920000      -2.33410000      -0.14470000
C       -3.16420000      -3.75490000      -0.70560000
N       -1.98160000      -4.41690000      -0.72450000
O       -4.22480000      -4.21710000      -1.07710000
H        1.63900000      -0.01650000      -0.29690000
H        0.47590000      -1.14680000      -1.03270000
H        0.15130000       0.59120000      -1.05330000
H        0.31220000      -1.13850000       1.47860000
H       -0.26210000       1.58650000       1.12250000
H       -2.11320000      -0.68530000       1.70860000
H       -2.12780000       0.09830000       0.11110000
H       -3.68190000      -2.31230000       0.78290000
H       -3.58400000      -1.66460000      -0.86320000
H       -1.14330000      -3.96000000      -0.41000000
H       -1.95440000      -5.35710000      -1.08070000
