23
Properties=species:S:1:pos:R:3 gdb_100833=T pbc="F F F"
C       -0.17560000       1.56780000       0.04620000
C        0.05670000       0.05410000       0.02180000
C        0.78570000      -0.46150000      -1.23560000
C        2.25700000      -0.02140000      -1.26380000
C        0.64200000      -1.99500000      -1.34020000
O       -0.72610000      -2.40440000      -1.31760000
C        1.33540000      -2.60740000      -2.56770000
C        1.03480000      -4.08800000      -2.67300000
O        0.63800000      -4.63750000      -3.66720000
H        0.76100000       2.13460000       0.04690000
H       -0.75790000       1.89230000      -0.82380000
H       -0.73210000       1.85950000       0.94230000
H        0.63140000      -0.24510000       0.90950000
H       -0.90560000      -0.46090000       0.09210000
H        0.28250000      -0.03490000      -2.11880000
H        2.74230000      -0.25580000      -2.21510000
H        2.34660000       1.05780000      -1.11480000
H        2.82590000      -0.51160000      -0.46420000
H        1.06900000      -2.44550000      -0.43340000
H       -1.14520000      -2.08660000      -2.12610000
H        1.01640000      -2.11870000      -3.49580000
H        2.42390000      -2.49270000      -2.48380000
H        1.22450000      -4.66030000      -1.73590000
