20
Properties=species:S:1:pos:R:3 gdb_13482=T pbc="F F F"
C        0.00410000       1.59880000       0.11580000
C        0.03400000       0.06990000      -0.01330000
C        0.84960000      -0.57390000       1.11700000
C       -1.38510000      -0.50640000      -0.05640000
C       -2.34950000      -0.14670000      -1.23500000
C       -2.73730000      -1.64700000      -1.39690000
C       -1.56910000      -1.98420000      -0.45750000
O       -0.95970000      -2.98890000      -0.22160000
H        1.01890000       2.00990000       0.10290000
H       -0.55670000       2.06530000      -0.70050000
H       -0.46490000       1.90130000       1.05980000
H        0.51890000      -0.18150000      -0.96780000
H        0.41850000      -0.32730000       2.09510000
H        0.86420000      -1.66190000       1.01890000
H        1.88160000      -0.20790000       1.10890000
H       -1.88040000      -0.33660000       0.91050000
H       -3.16340000       0.54030000      -1.00170000
H       -1.80580000       0.23330000      -2.10390000
H       -3.70180000      -1.89980000      -0.94410000
H       -2.69680000      -2.09120000      -2.39450000
