13
Properties=species:S:1:pos:R:3 gdb_27667=T pbc="F F F"
N        0.11260000       1.32170000       0.14550000
C       -0.04000000      -0.03510000       0.01890000
N       -1.11690000      -0.73660000       0.01430000
C       -0.65090000      -2.06780000      -0.00670000
C       -1.47400000      -3.21220000       0.00410000
N       -2.09930000      -4.18940000       0.01510000
C        0.71480000      -2.06080000      -0.04600000
N        1.68180000      -3.01910000      -0.18960000
O        1.12800000      -0.76200000      -0.02390000
H        0.88530000       1.71170000      -0.37620000
H       -0.75440000       1.81830000      -0.00230000
H        1.33230000      -3.96060000      -0.07410000
H        2.52760000      -2.85290000       0.33990000
