16
Properties=species:S:1:pos:R:3 gdb_27775=T pbc="F F F"
C       -0.01770000       1.51240000       0.03770000
C        0.00160000       0.00600000       0.00230000
C       -0.02060000      -0.67110000      -1.18820000
C       -0.00250000      -2.10940000      -1.25600000
O       -0.01990000      -2.82490000      -2.24390000
N        0.03880000      -2.72270000       0.03030000
C        0.06090000      -2.05910000       1.21700000
O        0.10030000      -2.77430000       2.36090000
C        0.04350000      -0.69550000       1.24150000
H        0.87170000       1.89970000       0.54760000
H       -0.05090000       1.93750000      -0.96730000
H       -0.88790000       1.87600000       0.59580000
H       -0.05270000      -0.14970000      -2.13660000
H        0.05130000      -3.73330000      -0.00970000
H        0.10750000      -3.71970000       2.17740000
H        0.06140000      -0.18300000       2.19290000
