22
Properties=species:S:1:pos:R:3 gdb_22167=T pbc="F F F"
C       -0.01390000       1.39460000       0.01120000
O       -0.00080000      -0.01160000       0.00260000
C        0.63420000      -0.54880000      -1.13620000
C        0.58540000      -2.06820000      -1.04830000
C        1.27380000      -2.74200000      -2.24840000
C        1.26500000      -4.24610000      -2.16230000
C        2.03000000      -4.94110000      -1.06710000
N        0.58060000      -4.85690000      -3.05320000
O        0.61920000      -6.25170000      -2.87320000
H        1.00500000       1.81450000       0.00800000
H       -0.55380000       1.80530000      -0.85720000
H       -0.52270000       1.71260000       0.92460000
H        0.13350000      -0.20070000      -2.05700000
H        1.68160000      -0.20080000      -1.19230000
H        1.05880000      -2.37560000      -0.10890000
H       -0.46100000      -2.38810000      -0.99540000
H        0.77900000      -2.44880000      -3.17910000
H        2.31580000      -2.39580000      -2.30660000
H        1.34590000      -5.34370000      -0.31150000
H        2.58240000      -5.79220000      -1.47360000
H        2.72410000      -4.25860000      -0.57190000
H        0.09860000      -6.56360000      -3.62050000
