12
Properties=species:S:1:pos:R:3 gdb_132708=T pbc="F F F"
F       -0.03050000       0.02210000       0.00350000
C       -0.02600000       1.34840000       0.01070000
C       -1.21630000       2.06220000       0.03020000
N       -1.20660000       3.39290000       0.03730000
C       -0.00880000       3.98950000       0.02480000
C       -0.05260000       5.49200000       0.03360000
O        0.91710000       6.20190000       0.02480000
N        1.18240000       3.38250000       0.00590000
C        1.17270000       2.05460000      -0.00120000
H       -2.17400000       1.54800000       0.04000000
H       -1.09060000       5.88280000       0.04940000
H        2.12450000       1.52910000      -0.01660000
