15
Properties=species:S:1:pos:R:3 gdb_35019=T pbc="F F F"
C       -0.01670000      -1.22550000      -0.00210000
C        0.03970000      -0.02440000       0.00080000
C        0.08130000       1.40940000      -0.00050000
N        0.46860000       2.22370000       1.17920000
C        1.53440000       1.44880000       1.92070000
C        2.48990000       1.45420000       0.70110000
C        1.36810000       2.17640000      -0.05050000
C        1.55010000       3.28210000      -0.94270000
N        1.72290000       4.15770000      -1.67890000
H       -0.07180000      -2.28660000      -0.01180000
H       -0.74030000       1.88680000      -0.52830000
H        1.88580000       2.05030000       2.75900000
H        1.18910000       0.47740000       2.27920000
H        3.36670000       2.08500000       0.84600000
H        2.79220000       0.49300000       0.28160000
