15
Properties=species:S:1:pos:R:3 gdb_47624=T pbc="F F F"
O        0.03470000      -0.04000000       0.10070000
C       -0.00370000       1.16270000      -0.01050000
C       -1.30980000       1.95320000      -0.09000000
N       -1.22690000       3.18310000      -0.87430000
C       -0.13880000       4.04790000      -0.43520000
C        1.16180000       3.34180000      -0.17280000
C        1.23700000       2.00410000      -0.02530000
C        2.49130000       1.34520000       0.17610000
N        3.51310000       0.82660000       0.33520000
H       -2.08570000       1.29770000      -0.49220000
H       -1.60590000       2.20780000       0.93850000
H       -1.08630000       2.94540000      -1.85130000
H        0.01630000       4.83600000      -1.18040000
H       -0.43990000       4.57250000       0.48720000
H        2.06220000       3.94690000      -0.09410000
