25
Properties=species:S:1:pos:R:3 gdb_104802=T pbc="F F F"
C        0.40210000       1.27370000       0.24660000
C        0.23230000      -0.22330000      -0.03690000
C        0.63710000      -0.71040000      -1.45210000
C       -0.07960000       0.07300000      -2.57140000
C       -1.61170000       0.03860000      -2.53000000
C        2.19160000      -0.61630000      -1.61720000
C        2.68610000      -2.01710000      -1.36320000
C        1.69050000      -2.89850000      -1.31930000
C        0.34870000      -2.24820000      -1.53910000
H        1.42820000       1.61550000       0.07730000
H       -0.25570000       1.88510000      -0.37900000
H        0.15540000       1.49300000       1.29040000
H        0.81890000      -0.79860000       0.69090000
H       -0.81450000      -0.49650000       0.14340000
H        0.25780000       1.11700000      -2.55600000
H        0.25870000      -0.33230000      -3.53390000
H       -2.03240000       0.56360000      -3.39350000
H       -1.99270000      -0.98790000      -2.55140000
H       -2.00860000       0.51900000      -1.63030000
H        2.46740000      -0.28390000      -2.62830000
H        2.63790000       0.11450000      -0.93260000
H        3.73960000      -2.25350000      -1.25690000
H        1.80370000      -3.96770000      -1.17420000
H       -0.39950000      -2.56790000      -0.80320000
H       -0.05750000      -2.52790000      -2.52200000
