20
Properties=species:S:1:pos:R:3 gdb_31813=T pbc="F F F"
C        0.10780000       1.54410000       0.14620000
C       -0.05480000       0.02540000      -0.02620000
C        0.69510000      -0.49830000      -1.22840000
N        0.22850000      -0.13330000      -2.43000000
C        0.87300000      -0.56070000      -3.51540000
C        2.01100000      -1.37030000      -3.50060000
C        2.68030000      -1.81470000      -4.77500000
C        2.48640000      -1.74310000      -2.24250000
C        1.82790000      -1.30690000      -1.10090000
H        1.15480000       1.81110000       0.32440000
H       -0.22430000       2.06210000      -0.75740000
H       -0.48360000       1.90720000       0.99230000
H        0.28570000      -0.49440000       0.87590000
H       -1.11790000      -0.20790000      -0.15370000
H        0.45730000      -0.24170000      -4.47060000
H        3.72300000      -1.48040000      -4.81820000
H        2.68920000      -2.90690000      -4.86390000
H        2.16530000      -1.41380000      -5.65240000
H        3.36740000      -2.37380000      -2.15780000
H        2.18460000      -1.59000000      -0.11600000
