19
Properties=species:S:1:pos:R:3 gdb_98303=T pbc="F F F"
C       -0.26370000       1.45260000       0.18760000
O       -0.28600000       0.04380000       0.45910000
C        0.88630000      -0.48160000       0.86400000
O        1.89550000       0.16440000       1.00770000
C        0.78100000      -1.97810000       1.10440000
C        1.59530000      -2.73700000       0.03980000
C        1.30390000      -2.29150000       2.49560000
C        0.40990000      -2.47560000       3.64410000
O        1.00900000      -3.59710000       2.98690000
H        0.45470000       1.68070000      -0.60360000
H       -1.27490000       1.70960000      -0.12740000
H        0.01340000       2.01250000       1.08420000
H       -0.26910000      -2.27490000       1.04460000
H        2.63710000      -2.40410000       0.04850000
H        1.56490000      -3.80840000       0.25260000
H        1.18850000      -2.56910000      -0.96150000
H        2.32330000      -1.95330000       2.68080000
H        0.77200000      -2.27600000       4.65140000
H       -0.66650000      -2.37740000       3.50890000
