15
Properties=species:S:1:pos:R:3 gdb_28532=T pbc="F F F"
N        0.01190000       1.42280000       0.14530000
C       -0.01070000       0.00960000       0.02940000
C       -1.14350000      -0.77700000       0.05920000
N       -1.11620000      -2.11870000       0.00220000
C        0.09500000      -2.65360000      -0.11050000
O        0.16670000      -3.99500000      -0.19680000
N        1.26550000      -2.02190000      -0.13900000
C        1.21530000      -0.69450000      -0.05700000
N        2.39420000       0.00480000      -0.09860000
H        0.41010000       1.86250000      -0.68010000
H       -0.91740000       1.80220000       0.28610000
H       -2.12740000      -0.31630000       0.14060000
H       -0.74720000      -4.30670000      -0.15570000
H        3.21800000      -0.55780000       0.05580000
H        2.38000000       0.89800000       0.37340000
