17
Properties=species:S:1:pos:R:3 gdb_42965=T pbc="F F F"
O       -0.06290000       0.08980000       0.58940000
C       -0.05740000       1.21680000       0.17220000
N       -1.24460000       1.96940000      -0.19410000
C       -1.64520000       2.81950000       0.95090000
C       -0.85260000       3.39930000      -0.15890000
C        0.66980000       3.44660000      -0.08020000
C        1.50010000       3.72480000       1.21160000
C        2.02700000       2.26200000       1.09300000
N        1.06010000       2.02540000      -0.01290000
H       -2.70980000       3.02070000       1.01370000
H       -1.16360000       2.63540000       1.90820000
H       -1.34390000       4.03810000      -0.88510000
H        1.07450000       3.95200000      -0.96310000
H        2.24640000       4.51710000       1.13630000
H        0.88340000       3.89420000       2.09690000
H        3.06400000       2.18230000       0.75730000
H        1.87130000       1.59560000       1.94460000
