16
Properties=species:S:1:pos:R:3 gdb_53245=T pbc="F F F"
C        0.38890000       1.54450000      -0.42600000
C        0.09410000       0.14020000      -0.18790000
C       -0.15750000      -1.02160000       0.00660000
C       -0.45110000      -2.41920000       0.24090000
C        0.17760000      -3.09250000       1.49230000
C       -1.28870000      -3.35870000       1.91370000
O       -1.79740000      -2.65370000       0.76820000
C       -1.70000000      -4.76670000       1.94060000
N       -2.01020000      -5.87960000       1.97020000
H        1.22530000       1.88580000       0.19340000
H        0.65090000       1.72450000      -1.47400000
H       -0.47840000       2.16930000      -0.18670000
H       -0.31070000      -3.00080000      -0.67810000
H        0.78430000      -3.97550000       1.29780000
H        0.70700000      -2.40660000       2.15140000
H       -1.60130000      -2.88470000       2.85100000
