17
Properties=species:S:1:pos:R:3 gdb_50330=T pbc="F F F"
O       -0.94880000       1.27830000       0.34260000
C        0.11610000       0.75940000       0.13620000
C        1.42260000       1.54370000       0.01020000
N        2.55940000       0.68370000      -0.38040000
C        2.88200000       1.09740000      -1.74930000
C        1.64050000       0.89320000      -2.64680000
N        1.21510000       2.32550000      -2.48340000
C        2.56760000       2.61990000      -1.87900000
C        1.36000000       2.66820000      -1.03930000
H        0.23810000      -0.34270000       0.04090000
H        1.59310000       1.99310000       0.99690000
H        3.35250000       0.86990000       0.22500000
H        3.83860000       0.69890000      -2.08420000
H        1.89130000       0.72890000      -3.69700000
H        0.90950000       0.14150000      -2.32810000
H        3.19430000       3.44840000      -2.18770000
H        0.87270000       3.59980000      -0.78050000
