15
Properties=species:S:1:pos:R:3 gdb_14410=T pbc="F F F"
C       -0.15200000       1.51250000      -0.02850000
C        0.10920000       0.04800000       0.01900000
C        0.64390000      -0.97920000      -0.88400000
C        1.38680000      -1.70300000       0.24200000
C        0.39600000      -0.97880000       1.19880000
C       -0.93450000      -1.56050000       0.74830000
O       -1.85730000      -2.11080000       1.26110000
N       -0.84440000      -0.98910000      -0.59180000
H        0.74220000       2.07900000       0.25160000
H       -0.44790000       1.80790000      -1.03880000
H       -0.95920000       1.78880000       0.65760000
H        0.89650000      -0.91530000      -1.93490000
H        1.38860000      -2.79750000       0.25810000
H        2.40670000      -1.32390000       0.34130000
H        0.62620000      -0.77850000       2.24150000
