23
Properties=species:S:1:pos:R:3 gdb_104689=T pbc="F F F"
C        0.57970000      -0.07250000       1.46490000
C        0.11210000      -0.12330000       0.00540000
C       -1.27510000      -0.72190000      -0.13670000
O       -2.27480000      -0.03790000       0.58690000
C       -2.61090000       1.24060000       0.08440000
C       -1.82350000      -1.37850000      -1.38320000
C       -0.76560000      -2.20020000      -2.12890000
C       -0.50680000      -3.02590000      -0.82380000
C       -1.57230000      -2.19460000      -0.10010000
H        1.56670000       0.39270000       1.54730000
H       -0.12220000       0.49830000       2.07880000
H        0.64360000      -1.07970000       1.89000000
H        0.11920000       0.88680000      -0.42390000
H        0.82370000      -0.69970000      -0.59220000
H       -1.79730000       1.96820000       0.21100000
H       -2.88050000       1.20510000      -0.98030000
H       -3.47490000       1.58630000       0.65760000
H       -2.77040000      -1.05070000      -1.79610000
H       -1.19870000      -2.81630000      -2.92010000
H        0.08040000      -1.64870000      -2.55140000
H       -0.80380000      -4.07060000      -0.93800000
H        0.50530000      -3.00320000      -0.40680000
H       -2.29670000      -2.56810000       0.61320000
