11
Properties=species:S:1:pos:R:3 gdb_133466=T pbc="F F F"
F       -0.45120000       0.18910000      -0.32460000
C       -0.01830000       1.40230000       0.03600000
F        1.30100000       1.31020000       0.23680000
F       -0.22220000       2.23790000      -0.99610000
C       -0.72920000       1.90660000       1.24730000
C       -1.48250000       3.02460000       1.36770000
O       -1.93000000       3.08060000       2.65170000
C       -1.41180000       1.97490000       3.24030000
N       -0.69170000       1.23850000       2.46270000
H       -1.77670000       3.81760000       0.70380000
H       -1.64810000       1.82230000       4.28130000
