15
Properties=species:S:1:pos:R:3 gdb_4188=T pbc="F F F"
O       -0.16810000       1.32800000      -0.01620000
N        0.00450000      -0.07170000       0.02040000
C       -1.11320000      -0.66350000      -0.05610000
C       -2.57710000      -0.24510000      -0.04430000
C       -2.93540000      -1.74020000       0.07630000
C       -2.38510000      -2.49830000      -1.07400000
O       -2.36890000      -1.91540000      -2.34170000
C       -1.41340000      -2.11680000       0.02550000
H        0.73720000       1.64350000       0.07380000
H       -2.81290000       0.33550000       0.85130000
H       -2.95410000       0.27220000      -0.92810000
H       -3.69850000      -2.14430000       0.72880000
H       -2.62750000      -3.56240000      -1.06720000
H       -1.52540000      -2.12230000      -2.75780000
H       -0.84460000      -2.85770000       0.57350000
