23
Properties=species:S:1:pos:R:3 gdb_91737=T pbc="F F F"
C       -0.34040000       1.53730000      -0.00960000
C        0.01600000       0.05230000      -0.00260000
C        0.80450000      -0.45890000      -1.25060000
C        1.94980000      -1.25370000      -0.58240000
O        1.34440000      -1.73570000       0.62940000
C        0.94300000      -0.45180000       1.13280000
C        2.28050000       0.31820000       1.17970000
C        3.03530000      -0.28430000      -0.05000000
C        4.32180000      -1.01160000       0.34310000
H        0.53700000       2.17160000      -0.17300000
H       -1.05370000       1.75880000      -0.81020000
H       -0.80310000       1.84260000       0.93580000
H       -0.91160000      -0.52330000       0.08280000
H        0.18770000      -1.10320000      -1.88150000
H        1.17910000       0.35990000      -1.87290000
H        2.33310000      -2.09810000      -1.15740000
H        0.44810000      -0.57630000       2.09720000
H        2.16080000       1.40230000       1.12490000
H        2.81190000       0.09140000       2.10810000
H        3.26320000       0.48680000      -0.79330000
H        4.09480000      -1.83240000       1.03110000
H        4.82950000      -1.43080000      -0.53270000
H        5.02210000      -0.33440000       0.84360000
