18
Properties=species:S:1:pos:R:3 gdb_12874=T pbc="F F F"
C       -0.09450000       1.53170000       0.08480000
C        0.09420000       0.03460000      -0.00340000
C        0.74820000      -0.68250000      -1.17520000
C        1.66390000       0.09570000      -2.11940000
C        2.81140000       0.53260000      -1.23110000
C        2.67150000       0.08760000       0.01940000
C        1.41090000      -0.69740000       0.19090000
O        1.44450000      -1.86830000       0.95490000
H        0.79510000       2.07470000      -0.24370000
H       -0.93650000       1.85510000      -0.53770000
H       -0.30880000       1.84010000       1.11440000
H       -0.73990000      -0.54000000       0.39620000
H        0.25710000      -1.57740000      -1.53810000
H        2.01280000      -0.52950000      -2.95130000
H        1.15750000       0.95650000      -2.57690000
H        3.61840000       1.16240000      -1.58900000
H        3.35900000       0.26390000       0.83940000
H        1.22860000      -1.63760000       1.86440000
