16
Properties=species:S:1:pos:R:3 gdb_5080=T pbc="F F F"
C        0.01010000       1.50570000       0.06010000
C        0.02100000       0.00810000       0.01760000
C       -0.00520000      -0.80430000      -1.09980000
N        0.01890000      -2.10610000      -0.68810000
C        0.05940000      -2.17100000       0.69140000
N        0.08880000      -3.42480000       1.34190000
C        0.06130000      -0.86820000       1.14100000
O        0.09690000      -0.53010000       2.46940000
H        0.90990000       1.91690000       0.53790000
H       -0.03450000       1.92370000      -0.94960000
H       -0.85540000       1.90120000       0.60910000
H       -0.03840000      -0.54340000      -2.14570000
H        0.00890000      -2.92400000      -1.27120000
H       -0.70620000      -3.53540000       1.96440000
H        0.92000000      -3.52140000       1.91780000
H        0.09230000       0.42910000       2.53520000
