23
Properties=species:S:1:pos:R:3 gdb_68383=T pbc="F F F"
C       -0.08100000       1.51190000       0.03300000
C        0.02800000      -0.00390000       0.01550000
C        0.91840000      -0.70100000      -1.06780000
C        1.20180000      -1.79420000       0.00440000
C        0.95520000      -0.68950000       1.06440000
C        0.07780000      -2.84550000       0.02960000
C       -1.30840000      -2.20060000      -0.04770000
C       -1.92610000      -1.45010000       1.11240000
C       -1.33900000      -0.68790000      -0.04840000
H        0.90970000       1.97890000       0.05170000
H       -0.60900000       1.88260000      -0.85370000
H       -0.63360000       1.85760000       0.91440000
H        0.43490000      -1.00310000      -2.00190000
H        1.81710000      -0.11820000      -1.29210000
H        2.18330000      -2.27460000      -0.00840000
H        1.85300000      -0.08330000       1.22070000
H        0.55480000      -0.97020000       2.04160000
H        0.20260000      -3.51150000      -0.83280000
H        0.17630000      -3.47620000       0.92310000
H       -2.01440000      -2.71060000      -0.69540000
H       -3.00760000      -1.47660000       1.19900000
H       -1.41550000      -1.44540000       2.06850000
H       -2.04160000      -0.19950000      -0.71960000
