20
Properties=species:S:1:pos:R:3 gdb_122096=T pbc="F F F"
C       -0.02060000       1.42230000       0.24230000
O       -0.02070000       0.06670000      -0.17110000
C       -1.27130000      -0.57120000      -0.06720000
C       -1.18150000      -1.93200000      -0.76940000
C       -0.91930000      -1.79070000      -2.27030000
C       -0.79450000      -3.13970000      -2.96680000
O       -0.57100000      -2.89240000      -4.34540000
C       -1.66990000      -0.73650000       1.35200000
N       -1.97500000      -0.85830000       2.45990000
H        0.99080000       1.79910000       0.08030000
H       -0.72790000       2.02090000      -0.35050000
H       -0.27650000       1.52150000       1.30560000
H       -2.05320000       0.03940000      -0.55080000
H       -0.38130000      -2.50530000      -0.28800000
H       -2.11770000      -2.47220000      -0.58840000
H       -1.73420000      -1.22990000      -2.74490000
H       -0.00110000      -1.21970000      -2.43430000
H        0.03650000      -3.71140000      -2.52190000
H       -1.71370000      -3.72870000      -2.81010000
H       -0.47880000      -3.73850000      -4.79280000
