17
Properties=species:S:1:pos:R:3 gdb_122741=T pbc="F F F"
O       -0.02400000       1.43380000      -0.10280000
C        0.01010000       0.02540000      -0.00470000
C       -1.39040000      -0.56520000       0.02500000
O       -2.01240000      -0.19160000      -1.19700000
C       -3.37620000      -0.55060000      -1.25580000
C       -3.95700000      -0.12470000      -2.51890000
C       -4.47660000       0.21290000      -3.55480000
C       -5.05650000       0.63250000      -4.80500000
O       -6.20790000       0.44200000      -5.12180000
H       -0.58970000       1.63480000      -0.85740000
H        0.57120000      -0.42700000      -0.83770000
H        0.53110000      -0.22270000       0.92560000
H       -1.35510000      -1.66200000       0.12610000
H       -1.95380000      -0.15510000       0.87790000
H       -3.49910000      -1.64240000      -1.15210000
H       -3.94010000      -0.09220000      -0.42510000
H       -4.34750000       1.15870000      -5.47550000
