21
Properties=species:S:1:pos:R:3 gdb_117208=T pbc="F F F"
C       -0.10830000       1.36160000      -0.03820000
O        0.27920000       0.01750000       0.12100000
C        0.61160000      -0.59560000      -1.08590000
C        1.02100000      -2.04600000      -0.84220000
O        1.02810000      -2.51760000       0.27210000
C        1.41270000      -2.85400000      -2.05000000
C        1.38700000      -2.21570000      -3.42660000
C        2.48080000      -3.90670000      -1.76610000
C        1.06370000      -4.33570000      -1.93860000
H        0.69800000       1.97260000      -0.47490000
H       -0.99790000       1.45930000      -0.68100000
H       -0.34610000       1.74860000       0.95520000
H       -0.23360000      -0.58120000      -1.79890000
H        1.44320000      -0.07360000      -1.59490000
H        2.06880000      -1.36120000      -3.49910000
H        1.69910000      -2.94210000      -4.18260000
H        0.38460000      -1.87140000      -3.70420000
H        3.19030000      -4.10600000      -2.56180000
H        2.88400000      -3.91570000      -0.76050000
H        0.52170000      -4.63090000      -1.04810000
H        0.77480000      -4.83720000      -2.85580000
