18
Properties=species:S:1:pos:R:3 gdb_66364=T pbc="F F F"
C        0.04760000       1.49720000       0.00960000
C        0.01460000      -0.02380000       0.00180000
O        0.64410000      -0.45680000      -1.17570000
C        0.81020000      -1.87660000      -1.25550000
C        1.55560000      -2.39120000      -0.02570000
C        0.83400000      -1.88990000       1.22370000
O        0.66650000      -0.46940000       1.16230000
C       -1.40920000      -0.51330000       0.01290000
N       -2.50260000      -0.88710000       0.02130000
H        1.09270000       1.81200000       0.00130000
H       -0.45850000       1.88510000      -0.87580000
H       -0.44130000       1.87560000       0.90880000
H       -0.17380000      -2.36010000      -1.34390000
H        1.36350000      -2.05450000      -2.17980000
H        1.59450000      -3.48560000      -0.03190000
H        2.58190000      -2.01000000      -0.03350000
H       -0.14820000      -2.37440000       1.32580000
H        1.40490000      -2.07770000       2.13530000
