17
Properties=species:S:1:pos:R:3 gdb_52163=T pbc="F F F"
O       -0.11200000       0.13110000       0.06420000
C        0.05630000       1.29630000      -0.17760000
C        1.41990000       1.90750000      -0.45010000
O        1.25070000       3.29900000      -0.60540000
C        2.41560000       3.96370000      -0.96740000
C        2.94360000       3.97730000      -2.38640000
C        1.76530000       4.11630000      -3.34890000
O        1.24380000       5.26490000      -2.63230000
C        2.34790000       5.23410000      -1.73930000
H       -0.77850000       2.02910000      -0.22770000
H        2.09470000       1.66350000       0.38610000
H        1.84380000       1.44400000      -1.35530000
H        3.20760000       3.94210000      -0.21520000
H        3.95870000       3.71820000      -2.65670000
H        2.06370000       4.40320000      -4.36230000
H        1.04580000       3.29150000      -3.38910000
H        2.76880000       6.18210000      -1.42200000
