19
Properties=species:S:1:pos:R:3 gdb_92003=T pbc="F F F"
C        0.68290000       1.46650000      -0.23430000
C        0.05440000       0.09760000       0.06730000
C        0.13760000      -0.86400000      -1.15410000
C        1.32610000      -1.75770000      -0.87550000
O        2.50410000      -1.04990000      -0.45910000
C        1.68240000      -1.66620000       0.54380000
C        0.73800000      -0.69860000       1.24260000
C        1.44160000       0.17050000       2.26300000
O        1.05290000       0.34320000       3.39090000
H        1.72810000       1.36650000      -0.53480000
H        0.13840000       1.95000000      -1.05200000
H        0.63060000       2.13540000       0.63120000
H       -0.99150000       0.26400000       0.33890000
H       -0.75910000      -1.49050000      -1.23230000
H        0.23600000      -0.31560000      -2.09650000
H        1.50990000      -2.64990000      -1.46860000
H        2.14970000      -2.47740000       1.09660000
H       -0.01840000      -1.27720000       1.78480000
H        2.37840000       0.64590000       1.90030000
