18
Properties=species:S:1:pos:R:3 gdb_14037=T pbc="F F F"
C        0.30750000       1.60050000       0.01530000
O        1.62050000       1.25250000       0.49500000
C        1.32170000      -0.15450000       0.42370000
C       -0.11450000       0.11830000      -0.09830000
C       -1.26570000      -0.38590000       0.80430000
C       -1.82700000      -1.55920000       0.03800000
C       -1.37750000      -1.59120000      -1.21540000
C       -0.43840000      -0.44470000      -1.50270000
H       -0.25320000       2.19630000       0.74810000
H        0.34960000       2.15350000      -0.93280000
H        1.98750000      -0.68040000      -0.27370000
H        1.38450000      -0.63760000       1.40790000
H       -0.91750000      -0.64670000       1.81070000
H       -2.03310000       0.39130000       0.94030000
H       -2.54130000      -2.25220000       0.46840000
H       -1.66700000      -2.31430000      -1.96970000
H       -0.93210000       0.31310000      -2.13000000
H        0.46550000      -0.74490000      -2.04590000
