19
Properties=species:S:1:pos:R:3 gdb_89706=T pbc="F F F"
C       -0.09610000       1.50220000      -0.04920000
C        0.07840000      -0.00230000       0.06400000
O        0.94510000      -0.51040000      -0.98980000
C        1.92520000      -1.23390000      -0.25390000
C        1.09110000      -2.00760000       0.81770000
C        0.82580000      -0.54650000       1.29630000
C        2.30900000      -0.26120000       0.90590000
C        2.95530000      -1.90610000      -1.10280000
O        3.00840000      -1.87100000      -2.30360000
H        0.84590000       2.03680000       0.09890000
H       -0.47650000       1.75870000      -1.04200000
H       -0.81820000       1.85610000       0.69440000
H       -0.90230000      -0.48710000      -0.03410000
H        0.25010000      -2.59470000       0.44140000
H        1.70040000      -2.58720000       1.51250000
H        0.41620000      -0.31200000       2.27810000
H        3.01960000      -0.68880000       1.61470000
H        2.60540000       0.74770000       0.61520000
H        3.70550000      -2.46790000      -0.49830000
