21
Properties=species:S:1:pos:R:3 gdb_59847=T pbc="F F F"
C       -0.14680000       1.58790000       0.03280000
C       -0.00660000       0.06620000      -0.02540000
C        0.76670000      -0.49320000       1.17810000
N       -1.33040000      -0.53050000      -0.13740000
C       -1.56150000      -1.76630000      -0.63910000
N       -0.62390000      -2.51770000      -1.09970000
C       -3.04720000      -2.13260000      -0.58760000
C       -3.47140000      -3.46490000      -1.16530000
O       -3.84130000      -1.36530000      -0.08840000
H        0.83780000       2.06070000       0.08440000
H       -0.66780000       1.97130000      -0.84940000
H       -0.70840000       1.89500000       0.92360000
H        0.53580000      -0.21590000      -0.93510000
H        1.77800000      -0.07480000       1.21190000
H        0.26040000      -0.24200000       2.11680000
H        0.84640000      -1.57970000       1.10070000
H       -2.13500000      -0.06240000       0.25180000
H       -1.00130000      -3.39060000      -1.45760000
H       -2.97760000      -4.28870000      -0.63930000
H       -4.55220000      -3.56540000      -1.06550000
H       -3.19090000      -3.53690000      -2.22140000
