18
Properties=species:S:1:pos:R:3 gdb_8496=T pbc="F F F"
C       -0.15660000       1.54040000      -0.01120000
C        0.02650000       0.02900000       0.01120000
O       -1.24760000      -0.58970000      -0.09300000
C        1.21900000      -0.65160000      -0.75130000
C        2.16350000      -0.12700000       0.37540000
C        0.90880000      -0.66780000       1.09590000
O        0.72870000      -0.63800000       2.46460000
C        0.99500000      -1.90950000       0.13940000
H        0.77590000       2.10020000       0.06210000
H       -0.64420000       1.84510000      -0.94650000
H       -0.80590000       1.84450000       0.81560000
H       -1.72590000      -0.17350000      -0.81670000
H        1.41190000      -0.63560000      -1.82220000
H        3.07320000      -0.71130000       0.52570000
H        2.37130000       0.94110000       0.42990000
H       -0.14900000      -0.99070000       2.65140000
H        0.08230000      -2.47670000      -0.02750000
H        1.86810000      -2.55010000       0.28190000
