19
Properties=species:S:1:pos:R:3 gdb_85044=T pbc="F F F"
C        1.05260000       1.48320000       0.05330000
C        0.18800000       0.22050000       0.00110000
C        0.53950000      -0.71840000      -1.18290000
O        0.75150000       0.04440000      -2.35480000
C        1.77950000      -1.52030000      -0.71100000
C        1.73410000      -1.42230000       0.80830000
O        2.58160000      -1.74430000       1.60480000
C        0.44350000      -0.71010000       1.20570000
O        0.53510000      -0.09610000       2.45780000
H        2.12250000       1.24960000       0.09570000
H        0.88230000       2.09810000      -0.83190000
H        0.80850000       2.05990000       0.94790000
H       -0.86510000       0.51020000      -0.05410000
H       -0.30130000      -1.41320000      -1.33140000
H        0.87760000      -0.56080000      -3.09200000
H        1.79820000      -2.56140000      -1.04730000
H        2.70060000      -1.04530000      -1.06540000
H       -0.34680000      -1.48660000       1.21090000
H        1.32140000      -0.47670000       2.87800000
