20
Properties=species:S:1:pos:R:3 gdb_79900=T pbc="F F F"
O        0.06290000       1.47260000      -0.11580000
C        0.05640000       0.07580000      -0.01490000
C       -0.09200000      -0.61960000       1.37310000
C       -1.53150000      -0.03700000       1.47600000
C       -2.51610000      -0.76550000       2.38450000
C       -2.73460000      -2.19450000       1.87180000
C       -1.40900000      -2.76660000       1.35180000
N       -0.59590000      -1.80960000       0.58040000
C       -1.33100000      -0.59240000       0.01940000
H        0.96740000       1.77630000       0.00600000
H        0.77310000      -0.41480000      -0.68130000
H        0.65310000      -0.74470000       2.16410000
H       -1.58690000       1.05000000       1.56000000
H       -2.12170000      -0.77290000       3.40980000
H       -3.46840000      -0.22530000       2.42570000
H       -3.16900000      -2.84480000       2.63820000
H       -3.45280000      -2.16540000       1.04330000
H       -0.78360000      -3.11820000       2.18290000
H       -1.59640000      -3.63770000       0.71330000
H       -2.05060000      -0.67450000      -0.79750000
