23
Properties=species:S:1:pos:R:3 gdb_119278=T pbc="F F F"
C       -0.12890000       1.55670000      -0.26890000
C       -0.09760000       0.03420000      -0.10660000
C        0.75450000      -0.65470000      -1.17720000
C        0.81340000      -2.19370000      -1.07190000
C       -0.52150000      -2.89110000      -1.52850000
C        0.09930000      -3.13030000      -2.92860000
C        1.49960000      -2.83070000      -2.33490000
C        1.34860000      -2.61970000       0.21080000
C        1.79980000      -2.99010000       1.26350000
H        0.87860000       1.98260000      -0.20430000
H       -0.54690000       1.84630000      -1.23990000
H       -0.73890000       2.02710000       0.50860000
H        0.29370000      -0.22610000       0.88330000
H       -1.12230000      -0.35720000      -0.14240000
H        0.37290000      -0.39450000      -2.17360000
H        1.78110000      -0.26900000      -1.12920000
H       -0.69120000      -3.82120000      -0.98270000
H       -1.42680000      -2.28200000      -1.47200000
H       -0.04640000      -4.11910000      -3.36780000
H       -0.21560000      -2.38300000      -3.66120000
H        2.16160000      -2.16770000      -2.89820000
H        2.04720000      -3.73920000      -2.07650000
H        2.19510000      -3.31610000       2.19340000
