18
Properties=species:S:1:pos:R:3 gdb_63565=T pbc="F F F"
C       -0.05420000       1.53940000      -0.02030000
C       -0.08000000       0.02980000       0.05650000
C       -1.22930000      -0.66700000      -0.63590000
O        1.20970000      -0.60390000      -0.12760000
C        0.62540000      -0.65670000       1.14910000
C        1.27020000      -0.14480000       2.45690000
N        0.82980000      -1.41410000       3.05020000
C        0.26190000      -1.94390000       1.91160000
O       -0.29570000      -2.98060000       1.67090000
H        0.84010000       1.94380000       0.45940000
H       -0.05790000       1.86430000      -1.06630000
H       -0.93850000       1.96620000       0.46480000
H       -1.20440000      -0.45490000      -1.71030000
H       -1.17470000      -1.74590000      -0.48190000
H       -2.18630000      -0.30590000      -0.24460000
H        2.35630000      -0.02460000       2.40270000
H        0.81230000       0.74600000       2.89900000
H        0.85170000      -1.75020000       4.00010000
