19
Properties=species:S:1:pos:R:3 gdb_74672=T pbc="F F F"
C       -0.02810000       1.50750000       0.04960000
C       -0.06330000       0.01440000      -0.01860000
C       -0.04220000      -0.75920000      -1.10840000
C       -0.03530000      -2.20850000      -0.76430000
C        1.05480000      -2.71470000       0.19720000
O        2.06930000      -1.83940000       0.61560000
C        1.51180000      -0.98880000       1.62650000
C        0.02240000      -0.85320000       1.23780000
C       -0.26790000      -2.28890000       0.73680000
H        0.86740000       1.87130000       0.57020000
H       -0.03710000       1.95420000      -0.94830000
H       -0.88990000       1.89950000       0.60590000
H        0.00310000      -0.39740000      -2.12940000
H       -0.46870000      -2.93930000      -1.43940000
H        1.36660000      -3.75260000       0.13760000
H        1.62420000      -1.44730000       2.62180000
H        2.06570000      -0.04560000       1.60910000
H       -0.60220000      -0.51600000       2.07020000
H       -0.98290000      -2.94420000       1.21760000
