18
Properties=species:S:1:pos:R:3 gdb_90495=T pbc="F F F"
O       -0.21490000       1.54420000      -0.02640000
C       -0.11600000       0.13500000      -0.04680000
C        0.44280000      -0.63710000       1.18310000
N       -0.82130000      -1.44790000       1.30390000
C       -1.92880000      -0.50590000       1.57140000
C       -1.84460000       0.70350000       2.44370000
C       -3.05760000       1.22820000       3.08630000
O       -2.10750000       0.47790000       3.83770000
C       -1.42580000      -0.60150000       0.18080000
H        0.63980000       1.91260000      -0.27260000
H        0.36330000      -0.20670000      -0.97220000
H        1.27860000      -1.29840000       0.94670000
H        0.69160000      -0.04350000       2.06660000
H       -2.84190000      -1.07320000       1.74310000
H       -1.04420000       1.40720000       2.24050000
H       -3.12040000       2.28890000       3.32540000
H       -4.01420000       0.73520000       2.91470000
H       -2.02630000      -1.04160000      -0.60900000
