19
Properties=species:S:1:pos:R:3 gdb_65966=T pbc="F F F"
C       -0.22660000       1.55230000       0.15150000
C       -0.02410000       0.05300000       0.02060000
C        1.21270000      -0.45300000      -0.77610000
O        1.69150000      -1.22760000       0.34190000
C        0.66560000      -0.69900000       1.17900000
C        0.94270000      -0.23600000       2.57100000
C        0.09890000      -1.47910000       2.31830000
C       -1.28430000      -0.67430000      -0.39960000
O       -2.36540000      -0.16020000      -0.52800000
H        0.69170000       2.03940000       0.48980000
H       -0.52140000       1.98670000      -0.80820000
H       -1.02590000       1.77630000       0.86340000
H        1.00900000      -1.08300000      -1.64980000
H        1.90920000       0.34600000      -1.05670000
H        1.95330000      -0.38380000       2.93630000
H        0.45060000       0.65990000       2.93500000
H       -0.96810000      -1.42770000       2.51070000
H        0.55180000      -2.44330000       2.52290000
H       -1.13820000      -1.76430000      -0.57740000
