17
Properties=species:S:1:pos:R:3 gdb_7845=T pbc="F F F"
C       -0.11520000       1.46020000      -0.06010000
C        0.02210000      -0.05110000       0.04940000
O        1.08880000      -0.59500000       0.27370000
N       -1.13600000      -0.75020000      -0.13340000
C       -1.16150000      -2.17640000      -0.15940000
C       -1.94860000      -2.94090000       0.89080000
C       -2.46550000      -2.82000000      -0.52400000
O       -3.50960000      -1.92480000      -0.79620000
H        0.34880000       1.91790000       0.81670000
H        0.43860000       1.80320000      -0.93890000
H       -1.15030000       1.80250000      -0.13950000
H       -1.99110000      -0.28180000      -0.38860000
H       -0.23500000      -2.60870000      -0.51680000
H       -1.57180000      -3.89930000       1.23090000
H       -2.45030000      -2.34310000       1.64440000
H       -2.44460000      -3.70030000      -1.16430000
H       -4.30750000      -2.25010000      -0.36730000
