19
Properties=species:S:1:pos:R:3 gdb_48022=T pbc="F F F"
O       -0.90650000       0.74570000      -0.04730000
C        0.09260000       0.89900000       0.61910000
C        1.18070000       1.77450000       0.27690000
C        2.11530000       2.49910000       0.02440000
C        3.21510000       3.38160000      -0.31780000
C        3.88360000       3.06150000      -1.67920000
C        4.69180000       4.33680000      -2.01090000
C        4.01780000       5.49480000      -1.21590000
C        2.80770000       4.86600000      -0.49350000
H        0.23590000       0.35140000       1.57360000
H        3.97970000       3.32200000       0.46930000
H        4.49580000       2.15750000      -1.64070000
H        3.09740000       2.89360000      -2.42230000
H        5.73530000       4.22030000      -1.70370000
H        4.70250000       4.52640000      -3.08720000
H        4.71850000       5.91150000      -0.48580000
H        3.71100000       6.32070000      -1.86240000
H        1.91120000       4.91030000      -1.12080000
H        2.56850000       5.35020000       0.45630000
