22
Properties=species:S:1:pos:R:3 gdb_58197=T pbc="F F F"
C        0.97380000      -0.36990000      -0.92600000
C       -0.01640000       0.02970000       0.17860000
C       -0.04420000       1.55490000       0.35570000
C       -1.44670000      -0.53760000      -0.02750000
C       -2.06810000      -0.20860000      -1.39310000
C       -1.47110000      -2.06670000       0.23160000
O       -0.92860000      -2.44030000       1.48680000
C       -2.83990000      -2.60890000       0.09310000
N       -3.91880000      -3.01800000       0.02520000
H        1.97740000      -0.01030000      -0.67790000
H        1.04410000      -1.45500000      -1.05240000
H        0.70020000       0.06480000      -1.89300000
H        0.34650000      -0.40350000       1.11740000
H       -0.72720000       1.85320000       1.15840000
H        0.95250000       1.92900000       0.61030000
H       -0.35950000       2.06790000      -0.55940000
H       -2.08420000      -0.08880000       0.74870000
H       -3.11910000      -0.50620000      -1.43060000
H       -2.02050000       0.86450000      -1.59430000
H       -1.54870000      -0.72350000      -2.20790000
H       -0.84280000      -2.56940000      -0.51180000
H       -1.49320000      -2.07510000       2.17830000
