19
Properties=species:S:1:pos:R:3 gdb_81995=T pbc="F F F"
C       -0.43230000       1.50920000       0.37480000
C       -0.14010000       0.02620000       0.21300000
C        0.28780000      -0.48600000      -1.16840000
N        1.58800000       0.15600000      -1.47670000
C        1.54810000      -1.05910000      -0.63730000
C        1.23380000      -0.57330000       0.80020000
C        2.24380000       0.38410000       1.43840000
C        0.95650000      -1.69980000       1.68540000
N        0.73850000      -2.59390000       2.38630000
H        0.35330000       2.11720000      -0.07890000
H       -1.37970000       1.75860000      -0.11540000
H       -0.52520000       1.78500000       1.43010000
H       -0.96910000      -0.57350000       0.59620000
H       -0.35560000      -0.84730000      -1.96080000
H        1.86250000      -0.13430000      -2.41400000
H        2.08620000      -1.95900000      -0.90690000
H        2.50720000       1.16430000       0.72340000
H        1.83070000       0.84570000       2.33950000
H        3.15330000      -0.15380000       1.72230000
