19
Properties=species:S:1:pos:R:3 gdb_82614=T pbc="F F F"
O        0.19220000       1.37920000      -0.06860000
C        0.02420000       0.00990000       0.02070000
C       -0.37200000      -0.73580000       1.27070000
C       -1.15880000       0.01580000       2.35410000
C       -2.62700000       0.09740000       1.90050000
C       -3.03430000       1.09500000       0.85000000
O       -2.27000000       2.23040000       0.52120000
C       -2.65380000      -0.29590000       0.42050000
C       -1.26990000      -0.78650000       0.02720000
H       -0.67110000       1.81110000       0.03970000
H        0.80510000      -0.48920000      -0.55100000
H        0.22320000      -1.58810000       1.58460000
H       -1.10130000      -0.51990000       3.30450000
H       -0.72910000       1.01130000       2.52630000
H       -3.39010000      -0.23110000       2.59920000
H       -4.10340000       1.29890000       0.79140000
H       -2.25080000       2.81350000       1.28880000
H       -3.46990000      -0.88450000       0.01470000
H       -1.28650000      -1.66480000      -0.61020000
