21
Properties=species:S:1:pos:R:3 gdb_56255=T pbc="F F F"
C       -0.07940000       1.41490000      -0.05220000
C       -0.24200000      -0.09510000       0.01890000
O       -0.57780000      -0.66860000       1.02340000
C        0.06170000      -0.83180000      -1.28390000
O       -0.00480000      -2.21020000      -1.09740000
C        0.27200000      -2.94560000      -2.27640000
C        0.23630000      -4.41350000      -1.95780000
C       -1.08020000      -5.14350000      -1.92620000
C       -0.10460000      -5.40080000      -3.04630000
H        0.98670000       1.66880000      -0.09040000
H       -0.54070000       1.82790000      -0.95540000
H       -0.51960000       1.87150000       0.83490000
H       -0.66190000      -0.48170000      -2.04540000
H        1.05620000      -0.50830000      -1.64600000
H       -0.47150000      -2.70940000      -3.05820000
H        1.26050000      -2.65840000      -2.67540000
H        0.98090000      -4.72410000      -1.23120000
H       -1.22020000      -5.91210000      -1.17490000
H       -1.97640000      -4.57520000      -2.15170000
H       -0.34560000      -5.01140000      -4.03040000
H        0.42900000      -6.34430000      -3.06490000
