19
Properties=species:S:1:pos:R:3 gdb_83509=T pbc="F F F"
C       -0.02100000       1.51800000       0.07740000
C       -0.08560000       0.02920000       0.00740000
C       -0.11390000      -0.78300000      -1.06330000
C       -0.00110000      -2.21640000      -0.56930000
C        1.41480000      -2.34200000       0.05410000
O        1.36900000      -1.46550000       1.19410000
C        0.03290000      -0.90040000       1.21290000
C       -0.81780000      -2.10770000       0.75630000
O       -2.19900000      -1.91430000       0.62810000
H        0.92370000       1.84160000       0.53200000
H       -0.09310000       1.97330000      -0.91450000
H       -0.82430000       1.92710000       0.70250000
H       -0.08940000      -0.48310000      -2.10460000
H       -0.27590000      -3.01160000      -1.26120000
H        1.62180000      -3.36560000       0.39110000
H        2.21090000      -2.02610000      -0.62990000
H       -0.14720000      -0.47990000       2.20160000
H       -0.68290000      -2.96730000       1.41750000
H       -2.32070000      -1.18090000       0.01130000
