14
Properties=species:S:1:pos:R:3 gdb_36764=T pbc="F F F"
N       -0.05270000      -1.15820000       0.00390000
C       -0.03400000      -0.00380000       0.00100000
C       -0.01390000       1.45990000       0.02820000
N        1.35350000       1.96200000      -0.06870000
C        1.40350000       3.42200000       0.01340000
C        2.77530000       3.90720000      -0.01980000
C        3.91140000       4.31430000      -0.02540000
C        5.19660000       4.77670000      -0.03460000
N        6.28870000       5.17150000      -0.04010000
H       -0.58720000       1.83080000      -0.83090000
H       -0.55370000       1.79250000       0.93370000
H        1.92700000       1.55400000       0.66240000
H        0.85910000       3.83430000      -0.84770000
H        0.90820000       3.83130000       0.91470000
