17
Properties=species:S:1:pos:R:3 gdb_80669=T pbc="F F F"
O        0.01180000       1.41950000       0.06490000
C       -0.02690000       0.02130000       0.01480000
C       -1.46280000      -0.53070000      -0.04750000
C       -1.98000000      -0.65470000      -1.49340000
C       -1.22210000      -2.00060000      -1.41990000
C        0.26780000      -1.84050000      -1.76500000
C        0.71840000      -0.49030000      -1.22800000
O        1.52450000       0.22580000      -1.77990000
O       -1.33640000      -1.97640000       0.02990000
H        0.73140000       1.67840000      -0.53200000
H        0.44380000      -0.43230000       0.90460000
H       -2.10300000      -0.10680000       0.72830000
H       -3.06040000      -0.79510000      -1.53330000
H       -1.66490000       0.09410000      -2.22400000
H       -1.66840000      -2.89530000      -1.85930000
H        0.82810000      -2.64820000      -1.28010000
H        0.47240000      -1.87740000      -2.83920000
