11
Properties=species:S:1:pos:R:3 gdb_5469=T pbc="F F F"
O        0.12440000       1.35870000       0.00910000
C        0.08090000       0.02320000      -0.02490000
C        0.01540000      -0.76440000      -1.16430000
N       -0.00830000      -2.06850000      -0.66540000
C        0.04240000      -1.98800000       0.67840000
N        0.09700000      -0.73540000       1.10000000
C       -0.02360000      -0.45390000      -2.53220000
N       -0.05660000      -0.21790000      -3.66760000
H        0.16570000       1.61580000       0.93940000
H       -0.05490000      -2.90420000      -1.22490000
H        0.03740000      -2.86110000       1.31280000
