20
Properties=species:S:1:pos:R:3 gdb_15655=T pbc="F F F"
C        0.01620000       1.56980000      -0.09930000
C        0.01290000       0.03840000      -0.06010000
C        0.62960000      -0.53970000       1.22150000
C       -0.16380000      -0.34220000       2.49980000
C       -0.08030000      -1.40180000       3.30590000
C        0.78520000      -2.48590000       2.70380000
C        0.83220000      -2.08590000       1.20860000
O       -0.17700000      -2.75880000       0.46660000
H        1.03500000       1.96630000      -0.02200000
H       -0.41370000       1.93990000      -1.03530000
H       -0.56680000       2.00080000       0.72170000
H       -1.01060000      -0.33400000      -0.17690000
H        0.56980000      -0.34940000      -0.92140000
H        1.62040000      -0.07320000       1.35200000
H       -0.69980000       0.57300000       2.72640000
H       -0.53390000      -1.48250000       4.28770000
H        1.78830000      -2.47990000       3.15350000
H        0.39000000      -3.50050000       2.82170000
H        1.77020000      -2.36910000       0.72380000
H       -1.01980000      -2.57110000       0.89610000
