16
Properties=species:S:1:pos:R:3 gdb_93485=T pbc="F F F"
O        0.13350000       1.32200000       0.27530000
C        0.01310000      -0.04330000       0.01060000
C       -1.45240000      -0.44410000      -0.13020000
O       -1.54510000      -1.85560000      -0.38120000
C       -0.78670000      -2.38630000      -1.36860000
N       -0.96870000      -3.53370000      -1.87120000
N        0.26560000      -1.59650000      -1.83680000
C        0.72020000      -0.42310000      -1.27790000
N        1.62110000       0.35880000      -1.72230000
H        0.85170000       1.62910000      -0.30420000
H        0.45140000      -0.65010000       0.82230000
H       -2.00410000      -0.26930000       0.79380000
H       -1.92610000       0.12120000      -0.94180000
H       -1.79630000      -3.96720000      -1.46780000
H        0.74540000      -1.99450000      -2.63140000
H        2.04060000       0.04980000      -2.59820000
