23
Properties=species:S:1:pos:R:3 gdb_63658=T pbc="F F F"
C       -0.01260000       1.55150000      -0.14720000
C        0.07180000       0.05040000       0.01600000
O       -1.00460000      -0.63790000      -0.57810000
C        1.40940000      -0.65560000       0.02430000
C        0.55240000      -0.60210000       1.27920000
C        0.98090000       0.16030000       2.51840000
C        1.79970000      -0.68640000       3.47430000
C        3.29530000      -0.79920000       3.32130000
C        2.70860000      -0.03970000       4.48730000
H        0.81930000       2.06560000       0.34060000
H        0.01430000       1.82230000      -1.21030000
H       -0.94990000       1.93200000       0.27180000
H       -0.93450000      -0.52090000      -1.53250000
H        1.48000000      -1.60090000      -0.50230000
H        2.31000000      -0.04930000      -0.00340000
H        0.02210000      -1.52720000       1.49180000
H        1.56610000       1.04470000       2.23760000
H        0.09030000       0.53630000       3.04140000
H        1.29360000      -1.59000000       3.80670000
H        3.76770000      -1.75630000       3.51340000
H        3.76840000      -0.22510000       2.53140000
H        2.78790000       1.04290000       4.47750000
H        2.77790000      -0.47780000       5.47690000
