18
Properties=species:S:1:pos:R:3 gdb_126189=T pbc="F F F"
C        0.28400000       1.65860000      -0.13470000
C       -0.05800000       0.17240000       0.07290000
C        0.55150000      -0.40000000       1.30780000
C        0.03450000      -0.86970000       2.47840000
C       -1.38070000      -0.99270000       2.94210000
C        1.20850000      -1.23860000       3.20060000
O        1.19950000      -1.76530000       4.43730000
N        2.31870000      -1.01750000       2.54460000
O        1.90010000      -0.47730000       1.32330000
H        1.36580000       1.80070000      -0.19740000
H       -0.16630000       2.02950000      -1.05990000
H       -0.08900000       2.26580000       0.69550000
H       -1.14250000       0.03800000       0.12800000
H        0.28840000      -0.40590000      -0.79230000
H       -1.62740000      -2.02870000       3.19820000
H       -1.56190000      -0.39040000       3.83920000
H       -2.08120000      -0.66210000       2.17100000
H        2.11760000      -1.92550000       4.69370000
