16
Properties=species:S:1:pos:R:3 gdb_56965=T pbc="F F F"
N       -0.41590000       1.61140000      -0.41750000
C        0.00170000       0.26260000      -0.03680000
C       -1.18990000      -0.55890000       0.23300000
N       -2.11500000      -1.22960000       0.40170000
C        0.88670000      -0.45470000      -1.05710000
C        2.37960000      -0.28340000      -1.04860000
N        1.76320000      -1.49870000      -0.56610000
C        1.93560000      -2.73590000      -1.18360000
O        2.97670000      -3.12880000      -1.64230000
H        0.40620000       2.17400000      -0.61550000
H       -0.97330000       1.58370000      -1.26630000
H        0.56830000       0.33080000       0.90020000
H        0.41720000      -0.61410000      -2.02780000
H        2.90860000      -0.33870000      -1.99600000
H        2.84400000       0.34440000      -0.29210000
H        1.01100000      -3.34070000      -1.14490000
