15
Properties=species:S:1:pos:R:3 gdb_126108=T pbc="F F F"
C       -0.04550000       1.52530000       0.07900000
C        0.01630000      -0.00910000      -0.03650000
C        0.70160000      -0.46360000      -1.23710000
C        1.27250000      -0.81930000      -2.23800000
C        1.93690000      -1.24860000      -3.40210000
N        2.45990000      -0.52720000      -4.35920000
C        2.95150000      -1.49060000      -5.19680000
N        2.75860000      -2.72360000      -4.81070000
O        2.07630000      -2.57580000      -3.60520000
H        0.95930000       1.95410000       0.10710000
H       -0.57580000       1.95850000      -0.77260000
H       -0.56960000       1.81020000       0.99520000
H        0.52260000      -0.43140000       0.84080000
H       -0.99860000      -0.42690000      -0.02960000
H        3.46660000      -1.26750000      -6.11990000
