19
Properties=species:S:1:pos:R:3 gdb_77530=T pbc="F F F"
C       -0.03310000       1.45750000       0.05790000
C       -0.00230000      -0.04470000       0.02040000
C        0.62080000      -0.96660000      -1.07060000
C        0.03060000      -1.95940000      -0.01920000
C        0.63990000      -1.01150000       1.06760000
C        0.05890000      -3.39110000      -0.04540000
C        0.06830000      -4.59440000      -0.06000000
C       -1.23020000      -1.01510000      -0.02260000
O       -2.17780000      -1.04700000       0.99890000
H        0.97580000       1.87790000       0.12960000
H       -0.50320000       1.86210000      -0.84500000
H       -0.60870000       1.81210000       0.92000000
H        0.14750000      -0.96360000      -2.05660000
H        1.71020000      -0.95850000      -1.14510000
H        1.73090000      -1.00430000       1.13290000
H        0.20970000      -1.04940000       2.07380000
H        0.07510000      -5.65590000      -0.07600000
H       -1.79680000      -1.01470000      -0.95790000
H       -1.73470000      -1.11150000       1.85120000
