25
Properties=species:S:1:pos:R:3 gdb_59359=T pbc="F F F"
C       -0.04450000       1.60400000      -0.00300000
C        0.03390000       0.08050000       0.11390000
O        0.70620000      -0.31220000       1.31310000
C       -1.33590000      -0.57850000       0.01330000
C       -2.11660000      -0.52230000      -1.32780000
C       -2.63220000      -1.95920000      -1.04460000
C       -2.80960000      -2.92810000      -2.20460000
C       -1.46120000      -2.13870000      -0.01650000
C       -0.23260000      -2.88690000      -0.53020000
H        0.95190000       2.04390000       0.09330000
H       -0.46850000       1.90810000      -0.96550000
H       -0.68070000       2.02160000       0.78780000
H        0.67710000      -0.30070000      -0.68780000
H        0.16340000      -0.02540000       2.05620000
H       -1.96760000      -0.18110000       0.82080000
H       -2.85580000       0.27190000      -1.46110000
H       -1.43460000      -0.50400000      -2.18600000
H       -3.57440000      -1.89350000      -0.48790000
H       -1.89620000      -3.02150000      -2.80070000
H       -3.08210000      -3.92990000      -1.85340000
H       -3.60620000      -2.58640000      -2.87540000
H       -1.76510000      -2.58270000       0.93660000
H        0.11320000      -2.51220000      -1.49960000
H        0.59430000      -2.78610000       0.17850000
H       -0.45100000      -3.95280000      -0.65340000
