21
Properties=species:S:1:pos:R:3 gdb_111147=T pbc="F F F"
C       -0.72140000       1.06310000      -0.11620000
O       -0.92650000      -0.25650000      -0.57100000
C        0.04030000      -0.68180000      -1.47210000
C        1.37060000      -1.30090000      -0.92630000
O        0.56000000      -2.40680000      -0.37310000
C        0.04690000      -2.19960000      -1.74690000
C        1.53060000      -2.11750000      -2.25620000
C        1.87860000      -1.42190000      -3.57330000
C        2.32830000      -3.41390000      -2.12650000
H        0.20980000       1.15770000       0.46150000
H       -0.68500000       1.78140000      -0.95080000
H       -1.56430000       1.31620000       0.53050000
H        0.11220000       0.00630000      -2.32150000
H        2.13950000      -0.87120000      -0.28160000
H       -0.77240000      -2.83940000      -2.07900000
H        1.35870000      -0.47910000      -3.74590000
H        2.95450000      -1.21720000      -3.61130000
H        1.64960000      -2.08400000      -4.41580000
H        2.10980000      -4.08200000      -2.96740000
H        3.40360000      -3.20360000      -2.15220000
H        2.09370000      -3.93050000      -1.19670000
