20
Properties=species:S:1:pos:R:3 gdb_126523=T pbc="F F F"
C        0.14130000       1.60400000       0.07830000
C        0.06430000       0.07640000       0.05240000
C        0.57780000      -0.51560000      -1.27530000
C        0.52560000      -2.00500000      -1.31400000
C       -0.19850000      -2.90340000      -2.03350000
C        0.23690000      -4.17290000      -1.55140000
C       -0.20880000      -5.53570000      -1.97510000
N        1.14890000      -4.03940000      -0.61710000
O        1.33540000      -2.66420000      -0.46320000
H        1.17270000       1.95160000      -0.04770000
H       -0.45760000       2.04690000      -0.72550000
H       -0.23000000       2.00130000       1.02760000
H        0.65040000      -0.34470000       0.87620000
H       -0.97040000      -0.25020000       0.21030000
H       -0.01360000      -0.12870000      -2.11180000
H        1.61260000      -0.18840000      -1.43900000
H       -0.93180000      -2.69770000      -2.79610000
H       -0.01880000      -5.69610000      -3.04150000
H        0.32590000      -6.29880000      -1.40640000
H       -1.28360000      -5.66540000      -1.81100000
