20
Properties=species:S:1:pos:R:3 gdb_90462=T pbc="F F F"
C       -0.79000000       0.94540000      -0.02650000
C        0.30440000      -0.12160000       0.01800000
C        1.30280000      -0.03800000      -1.16910000
C        2.64450000      -0.50470000      -0.62900000
C        2.57490000      -0.51340000       0.87400000
C        1.18870000      -0.05230000       1.29320000
C        2.72560000      -1.83240000       0.12020000
C        1.70280000      -2.83780000       0.06700000
N        0.89570000      -3.66680000       0.02480000
H       -0.35940000       1.95350000      -0.00070000
H       -1.38930000       0.86040000      -0.93900000
H       -1.47110000       0.85020000       0.82570000
H       -0.17840000      -1.10150000      -0.01010000
H        0.96050000      -0.61610000      -2.03350000
H        1.41300000       1.00220000      -1.50060000
H        3.54710000      -0.21130000      -1.15360000
H        3.42500000      -0.22660000       1.48320000
H        1.26730000       0.98390000       1.64550000
H        0.76840000      -0.64020000       2.11550000
H        3.72180000      -2.26210000       0.16380000
