15
Properties=species:S:1:pos:R:3 gdb_52572=T pbc="F F F"
C       -0.05960000       1.32970000       0.08280000
C        0.09400000      -0.11350000       0.05470000
C        0.19980000      -1.31620000       0.04250000
C        0.35850000      -2.74870000       0.00730000
O       -0.47630000      -3.53170000       0.40080000
C        1.71020000      -3.22300000      -0.53990000
O        1.71900000      -4.60560000      -0.82760000
C        1.71040000      -5.45470000       0.22930000
O        1.65820000      -6.63680000       0.09070000
H        0.77160000       1.83190000      -0.42200000
H       -0.99100000       1.62770000      -0.41030000
H       -0.10070000       1.69160000       1.11590000
H        1.93980000      -2.70320000      -1.47310000
H        2.48860000      -2.94820000       0.18780000
H        1.78960000      -4.93520000       1.20150000
