25
Properties=species:S:1:pos:R:3 gdb_119006=T pbc="F F F"
C       -0.31040000       1.28730000       0.42350000
O       -0.10540000      -0.08420000       0.19390000
C       -1.31020000      -0.80710000       0.04490000
C       -0.99600000      -2.28850000      -0.21630000
C       -0.23030000      -2.42200000      -1.53740000
C       -0.23430000      -2.90440000       0.98020000
C       -1.30510000      -3.16580000       2.05790000
C       -2.63190000      -3.40520000       1.28020000
C       -2.31880000      -3.09350000      -0.20630000
H        0.67200000       1.75400000       0.53160000
H       -0.84170000       1.76810000      -0.41370000
H       -0.89190000       1.46680000       1.34240000
H       -1.93160000      -0.68890000       0.94860000
H       -1.89360000      -0.40140000      -0.80040000
H        0.69340000      -1.83810000      -1.51260000
H        0.02680000      -3.46830000      -1.73430000
H       -0.83060000      -2.06080000      -2.38080000
H        0.21480000      -3.85210000       0.65900000
H        0.57610000      -2.25890000       1.32660000
H       -1.04150000      -4.01130000       2.69910000
H       -1.40120000      -2.29800000       2.71820000
H       -2.98880000      -4.43250000       1.39590000
H       -3.42890000      -2.76020000       1.66180000
H       -3.13470000      -2.56200000      -0.70870000
H       -2.16340000      -4.02430000      -0.76320000
