25
Properties=species:S:1:pos:R:3 gdb_59194=T pbc="F F F"
C        0.19850000       1.34820000       0.22360000
C        0.18240000      -0.18830000       0.22060000
C        0.83220000      -0.74550000       1.49670000
C       -1.25320000      -0.70120000       0.09170000
C       -2.06000000      -0.62300000      -1.24850000
C       -1.21160000      -1.82010000      -1.76870000
C       -1.58890000      -2.17960000      -0.30170000
C       -3.03610000      -1.69860000      -0.66090000
C       -4.08640000      -1.37600000       0.39210000
H        1.21910000       1.73250000       0.32410000
H       -0.22450000       1.75570000      -0.70020000
H       -0.38850000       1.74420000       1.06120000
H        0.78320000      -0.52470000      -0.63160000
H        0.27180000      -0.43740000       2.38790000
H        0.86370000      -1.83970000       1.48610000
H        1.85870000      -0.38060000       1.60910000
H       -1.80970000      -0.34000000       0.96260000
H       -2.33690000       0.27680000      -1.80290000
H       -1.67080000      -2.43380000      -2.54910000
H       -0.16060000      -1.63740000      -1.99120000
H       -1.31880000      -3.08720000       0.24320000
H       -3.49470000      -2.31390000      -1.44430000
H       -3.71780000      -0.75950000       1.21510000
H       -4.92910000      -0.84500000      -0.06490000
H       -4.48330000      -2.30080000       0.82590000
