16
Properties=species:S:1:pos:R:3 gdb_44487=T pbc="F F F"
O        0.01980000      -0.01470000      -0.10880000
C       -0.00930000       1.18180000       0.04110000
N       -1.12730000       1.99600000       0.12500000
C       -0.73160000       3.37010000       0.23630000
C        0.19190000       3.95560000      -0.92150000
C        1.01650000       4.64460000       0.18340000
C        0.65150000       3.35660000       0.96010000
C        1.14650000       2.19980000       0.06460000
O        1.00080000       2.82480000      -1.25270000
H       -2.02470000       1.68060000      -0.20840000
H       -1.49480000       4.03760000       0.63060000
H       -0.17270000       4.43960000      -1.82530000
H        2.06430000       4.84430000      -0.04430000
H        0.52940000       5.52430000       0.61040000
H        0.73800000       3.23850000       2.03870000
H        2.14500000       1.78900000       0.19220000
