18
Properties=species:S:1:pos:R:3 gdb_97831=T pbc="F F F"
C        0.05090000       1.62470000       0.45820000
C        0.05230000       0.18370000      -0.08390000
C       -1.28380000      -0.38750000      -0.20750000
C       -2.39550000      -0.84100000      -0.30900000
C       -3.71790000      -1.42070000      -0.40410000
N       -4.16250000      -1.90130000      -1.75130000
C       -4.65690000      -3.19790000      -1.22380000
C       -3.94910000      -2.88130000       0.10020000
O       -3.66840000      -3.48390000       1.08620000
H        1.07400000       2.00500000       0.53150000
H       -0.51710000       2.28720000      -0.20050000
H       -0.40390000       1.66550000       1.45160000
H        0.54400000       0.15920000      -1.06480000
H        0.65810000      -0.45560000       0.57110000
H       -4.45630000      -0.76950000       0.09260000
H       -4.87840000      -1.31930000      -2.16990000
H       -5.74460000      -3.28600000      -1.08920000
H       -4.29790000      -4.07870000      -1.76670000
