17
Properties=species:S:1:pos:R:3 gdb_78857=T pbc="F F F"
O        0.00610000       1.43420000       0.04810000
C        0.06340000       0.02000000      -0.02010000
C        0.62100000      -0.63750000       1.23300000
C       -0.50460000      -0.90580000       2.22490000
C        0.07840000      -2.03650000       1.40430000
C       -1.22620000      -2.05030000       0.53950000
O       -1.87450000      -3.17040000       0.07350000
C       -1.79470000      -0.93090000       1.36390000
C       -1.29040000      -0.66700000      -0.06490000
H       -0.52620000       1.65460000       0.82170000
H        0.66870000      -0.20260000      -0.90560000
H        1.61120000      -0.38700000       1.59510000
H       -0.44000000      -0.73240000       3.29000000
H        0.64780000      -2.89800000       1.72550000
H       -1.47710000      -3.42510000      -0.76750000
H       -2.80940000      -0.75060000       1.68900000
H       -2.01550000      -0.46110000      -0.84280000
