25
Properties=species:S:1:pos:R:3 gdb_59655=T pbc="F F F"
C       -0.24170000       1.50980000      -0.89030000
C       -0.06410000       0.09840000      -0.31200000
C        0.63470000       0.15250000       1.05530000
C       -1.40770000      -0.62260000      -0.21190000
C       -2.29640000      -0.83880000      -1.46850000
C       -2.74910000      -2.19490000      -0.86680000
C       -1.49500000      -2.15560000       0.06050000
C       -0.33960000      -2.99230000      -0.48490000
O       -1.70100000      -2.42170000       1.43800000
H        0.72170000       2.02350000      -0.97710000
H       -0.69860000       1.48390000      -1.88470000
H       -0.88490000       2.11860000      -0.24350000
H        0.57700000      -0.46500000      -1.00480000
H        0.06430000       0.77650000       1.75350000
H        0.72060000      -0.83970000       1.50680000
H        1.63900000       0.58140000       0.97000000
H       -2.01430000      -0.14170000       0.56600000
H       -3.06880000      -0.09480000      -1.67220000
H       -1.69780000      -0.97140000      -2.37560000
H       -3.65820000      -2.09070000      -0.26930000
H       -2.85570000      -3.04830000      -1.54250000
H       -0.15260000      -2.78890000      -1.54360000
H        0.58390000      -2.80640000       0.07050000
H       -0.58050000      -4.05990000      -0.39920000
H       -1.71680000      -3.37710000       1.56250000
