17
Properties=species:S:1:pos:R:3 gdb_107378=T pbc="F F F"
O        0.56080000       0.12790000       1.12460000
C        0.03680000       0.26220000      -0.18460000
C       -1.35410000      -0.32710000      -0.31440000
C       -2.35210000      -0.37440000       0.83950000
C       -1.77130000      -1.64270000       0.25970000
O       -2.53130000      -2.32710000      -0.71690000
C       -2.71160000      -1.49800000      -1.79960000
N       -3.48030000      -1.70580000      -2.78020000
N       -1.90170000      -0.37790000      -1.64020000
H        0.19260000       0.83010000       1.66890000
H        0.03030000       1.31390000      -0.51010000
H        0.71130000      -0.28010000      -0.85550000
H       -1.99110000      -0.10920000       1.82720000
H       -3.39100000      -0.13670000       0.63820000
H       -1.12410000      -2.29010000       0.83580000
H       -3.96940000      -2.59020000      -2.66580000
H       -2.21780000       0.45800000      -2.10800000
