15
Properties=species:S:1:pos:R:3 gdb_99462=T pbc="F F F"
C       -0.00670000       1.47060000      -0.25460000
N       -0.09710000       0.13460000       0.32150000
C       -1.38600000      -0.50030000       0.23580000
C       -1.98850000      -0.52180000      -1.12390000
N       -2.40470000      -0.50610000      -2.20270000
C       -1.27380000      -1.97130000       0.71390000
O       -0.20130000      -2.51770000       0.79700000
C       -2.52630000      -2.61520000       1.02850000
C       -3.58430000      -3.12320000       1.29410000
H        1.01460000       1.83670000      -0.12530000
H       -0.26580000       1.52120000      -1.32360000
H       -0.67510000       2.14910000       0.28720000
H        0.61180000      -0.49410000      -0.03890000
H       -2.10300000       0.01290000       0.89150000
H       -4.51290000      -3.58660000       1.52740000
