23
Properties=species:S:1:pos:R:3 gdb_109246=T pbc="F F F"
C       -0.24230000       1.51830000      -0.02950000
C        0.09490000       0.01750000       0.02830000
C        0.79070000      -0.48440000      -1.20740000
C        2.06120000      -0.89810000      -1.23710000
C        2.67210000      -1.37800000      -2.53430000
C        1.63750000      -1.30470000      -3.67010000
C        0.91700000       0.07550000      -3.64700000
C        0.02460000      -0.53260000      -2.52230000
C        0.28530000      -1.91450000      -3.19640000
H        0.66960000       2.11660000      -0.12220000
H       -0.88300000       1.75380000      -0.88560000
H       -0.76830000       1.83560000       0.87640000
H        0.72170000      -0.18050000       0.90520000
H       -0.83720000      -0.54690000       0.17580000
H        2.67570000      -0.90180000      -0.33990000
H        3.55490000      -0.77320000      -2.78800000
H        3.03970000      -2.40870000      -2.42450000
H        2.05660000      -1.65220000      -4.61760000
H        1.50480000       0.96410000      -3.40180000
H        0.35230000       0.24600000      -4.56800000
H       -1.00610000      -0.18560000      -2.42410000
H       -0.38990000      -2.09010000      -4.03870000
H        0.31050000      -2.79610000      -2.55030000
