14
Properties=species:S:1:pos:R:3 gdb_17598=T pbc="F F F"
C        0.45970000       1.27350000      -0.51320000
C        0.52420000      -0.10680000      -1.11320000
O        1.54990000      -0.68900000      -1.37910000
C       -0.84240000      -0.73280000      -1.48100000
O       -1.69130000      -0.03490000      -1.98920000
C       -1.08250000      -2.18500000      -1.21100000
C       -0.03970000      -3.22200000      -1.38430000
O       -0.39150000      -2.74880000      -0.09300000
H       -0.18590000       1.91080000      -1.12350000
H        0.00100000       1.21730000       0.48160000
H        1.46330000       1.69140000      -0.43190000
H       -2.12910000      -2.46700000      -1.31500000
H       -0.37490000      -4.23140000      -1.61840000
H        0.94460000      -2.92970000      -1.73380000
