16
Properties=species:S:1:pos:R:3 gdb_54510=T pbc="F F F"
N        0.02670000       1.02540000      -0.71180000
C       -0.04930000       0.05680000       0.23440000
O        0.80470000      -0.15160000       1.08070000
C       -1.29690000      -0.77160000       0.14550000
C       -1.83520000      -1.37620000       1.43120000
C       -1.29560000      -2.30380000       0.39430000
N       -2.25570000      -2.76460000      -0.57550000
C       -2.68970000      -1.67120000      -1.29020000
N       -2.21650000      -0.52820000      -0.93700000
H        0.80950000       1.65640000      -0.70430000
H       -0.74200000       1.15490000      -1.34970000
H       -1.19830000      -1.20910000       2.29150000
H       -2.90670000      -1.34230000       1.59650000
H       -0.40210000      -2.89300000       0.55790000
H       -2.18850000      -3.67790000      -0.99430000
H       -3.41620000      -1.80220000      -2.08530000
