20
Properties=species:S:1:pos:R:3 gdb_112833=T pbc="F F F"
C        0.25220000       1.49550000      -0.26640000
C        0.06560000       0.00250000      -0.04710000
O        0.67360000      -0.69820000      -1.13860000
C        1.20770000      -1.95650000      -0.70900000
C        2.44300000      -2.22420000      -1.56140000
O        2.12960000      -2.20350000      -2.94120000
C        1.44370000      -1.79560000       0.78030000
N        2.20220000      -0.56530000       1.10060000
C        0.72890000      -0.57110000       1.19500000
H        1.31590000       1.74250000      -0.23500000
H       -0.15250000       1.79020000      -1.23840000
H       -0.27070000       2.06490000       0.50880000
H       -1.00910000      -0.24240000      -0.00220000
H        0.46630000      -2.75550000      -0.87420000
H        3.20900000      -1.47970000      -1.30260000
H        2.83950000      -3.22130000      -1.33990000
H        1.66990000      -1.36890000      -3.09060000
H        1.52940000      -2.67010000       1.41600000
H        2.59690000      -0.65220000       2.03390000
H        0.24400000      -0.47330000       2.16050000
