20
Properties=species:S:1:pos:R:3 gdb_10770=T pbc="F F F"
C       -0.25160000       1.56580000      -0.02550000
C        0.01380000       0.06430000       0.01150000
C        1.20850000      -0.41810000      -0.89660000
C        1.70090000       0.37300000      -2.09940000
C        2.05360000      -0.43130000       0.38500000
O        3.22480000      -0.29360000       0.60290000
C        0.80570000      -0.43560000       1.27930000
C        0.83280000       0.33510000       2.59090000
H        0.65840000       2.15060000       0.14760000
H       -0.65600000       1.86750000      -0.99700000
H       -0.97780000       1.85340000       0.74140000
H       -0.91790000      -0.47860000      -0.16540000
H        1.02510000      -1.46130000      -1.18580000
H        1.89650000       1.41810000      -1.84450000
H        2.63780000      -0.05410000      -2.46930000
H        0.97340000       0.35200000      -2.91710000
H        0.53400000      -1.48280000       1.46740000
H        1.10360000       1.38350000       2.43920000
H       -0.13910000       0.30340000       3.09370000
H        1.57650000      -0.10040000       3.26490000
