18
Properties=species:S:1:pos:R:3 gdb_55803=T pbc="F F F"
N        0.96940000       0.56700000      -0.42420000
C        0.00400000      -0.05600000       0.30990000
O       -0.29570000       0.30480000       1.43230000
C       -0.69880000      -1.22350000      -0.38520000
C       -0.91980000      -2.38380000       0.57680000
C       -1.87530000      -2.29870000       1.79790000
C       -3.11200000      -2.37370000       0.87090000
C       -2.06820000      -3.42210000       0.41570000
O       -1.87090000      -3.78640000       1.83500000
H        1.44330000       1.35740000      -0.01850000
H        1.23300000       0.26180000      -1.34370000
H       -1.64840000      -0.83350000      -0.76750000
H       -0.12870000      -1.56670000      -1.25650000
H        0.02230000      -2.86810000       0.84690000
H       -1.73650000      -1.76520000       2.73480000
H       -4.00220000      -2.79750000       1.33610000
H       -3.34470000      -1.52650000       0.22280000
H       -2.16850000      -4.23800000      -0.30210000
