25
Properties=species:S:1:pos:R:3 gdb_60160=T pbc="F F F"
C       -0.03460000       1.56340000      -0.05690000
C        0.03670000       0.03440000       0.06180000
C        0.83060000      -0.36890000       1.31240000
C       -1.37870000      -0.57290000       0.02600000
C       -1.45910000      -2.09420000      -0.07300000
C       -1.30040000      -2.98950000       1.19460000
C       -2.42450000      -3.89160000       0.65450000
O       -3.31050000      -4.36060000       1.64540000
C       -2.86770000      -2.72690000      -0.27130000
H        0.96640000       2.00700000      -0.08020000
H       -0.56020000       1.87090000      -0.96730000
H       -0.56830000       1.99740000       0.79740000
H        0.57880000      -0.34420000      -0.81760000
H        0.31610000      -0.04130000       2.22400000
H        0.97040000      -1.45080000       1.38010000
H        1.82320000       0.09420000       1.30970000
H       -1.94040000      -0.23920000       0.91110000
H       -1.90770000      -0.15170000      -0.84070000
H       -0.78340000      -2.44500000      -0.86260000
H       -0.33180000      -3.44860000       1.40410000
H       -1.65130000      -2.46910000       2.09150000
H       -2.01280000      -4.72420000       0.06500000
H       -3.97700000      -4.90940000       1.21990000
H       -3.63740000      -2.13180000       0.23160000
H       -3.19620000      -2.95760000      -1.28850000
