21
Properties=species:S:1:pos:R:3 gdb_65574=T pbc="F F F"
C        0.40450000       1.21960000       0.02800000
C       -0.09020000      -0.24610000      -0.00260000
C        0.50270000      -1.03870000      -1.22680000
C        1.60650000      -1.93430000      -0.68940000
C        2.71960000      -1.31840000       0.12220000
C        1.53640000      -1.94220000       0.82090000
C        0.38720000      -1.05160000       1.26300000
C       -1.55190000      -0.22050000      -0.07020000
C       -2.75320000      -0.18940000      -0.12580000
H        1.49430000       1.27610000       0.07880000
H        0.07740000       1.75140000      -0.87020000
H       -0.00460000       1.74220000       0.89750000
H       -0.27910000      -1.66000000      -1.67240000
H        0.84440000      -0.34710000      -2.00470000
H        1.82650000      -2.84110000      -1.24240000
H        3.65510000      -1.86660000       0.16280000
H        2.84810000      -0.24220000       0.13380000
H        1.70480000      -2.85470000       1.38250000
H        0.65510000      -0.36830000       2.07630000
H       -0.43220000      -1.67720000       1.62790000
H       -3.81350000      -0.16780000      -0.17490000
