20
Properties=species:S:1:pos:R:3 gdb_39726=T pbc="F F F"
C       -0.02030000       1.49100000      -0.01410000
C        1.30100000       0.73890000      -0.03090000
C        0.00550000      -0.00200000       0.05060000
C       -0.47060000      -0.86410000       1.21280000
C       -1.95590000      -1.03510000       0.81530000
C       -1.68950000      -1.45760000      -0.62670000
C       -0.39390000      -2.19510000      -0.64310000
C        0.13290000      -2.22410000       0.78880000
N       -0.45240000      -0.78060000      -1.10660000
H       -0.28370000       2.04380000       0.88190000
H       -0.35050000       1.94320000      -0.94250000
H        1.84050000       0.69600000      -0.97030000
H        1.92780000       0.78500000       0.85390000
H       -0.25930000      -0.51550000       2.22200000
H       -2.47080000      -1.81050000       1.39150000
H       -2.52280000      -0.10230000       0.88830000
H       -2.47820000      -1.61420000      -1.35220000
H       -0.13990000      -2.94520000      -1.38180000
H        1.22560000      -2.23600000       0.84090000
H       -0.25990000      -3.06900000       1.36350000
