15
Properties=species:S:1:pos:R:3 gdb_48950=T pbc="F F F"
O       -0.14550000       0.04910000       0.21620000
C        0.03000000       1.20910000      -0.07550000
C        1.32420000       1.89050000      -0.02490000
C        2.64280000       1.26690000       0.39570000
C        3.45220000       2.56090000       0.18420000
O        3.14710000       2.92220000      -1.16380000
C        1.74780000       2.99160000      -1.03920000
C        1.48480000       3.38650000       0.37110000
O        2.74840000       3.52090000       0.97410000
H       -0.81800000       1.84920000      -0.41320000
H        2.65000000       0.93650000       1.43520000
H        2.96680000       0.46060000      -0.26380000
H        4.52040000       2.59770000       0.37310000
H        1.20130000       3.27460000      -1.92610000
H        0.70180000       4.02460000       0.75210000
