14
Properties=species:S:1:pos:R:3 gdb_125189=T pbc="F F F"
C       -0.02020000       1.52080000       0.06790000
C        0.00870000       0.03410000      -0.03290000
C       -0.00520000      -0.83590000      -1.11290000
N       -0.04620000      -0.88690000      -2.48600000
N       -0.03270000      -2.05670000      -2.89390000
O        0.02480000      -3.00080000      -1.69490000
C        0.03840000      -2.17350000      -0.65200000
C        0.07970000      -2.15420000       0.71850000
N        0.05990000      -0.79810000       1.05210000
H        0.87530000       1.91670000       0.56160000
H       -0.06690000       1.95360000      -0.93320000
H       -0.89320000       1.87770000       0.62720000
H        0.11930000      -2.91840000       1.47340000
H        0.08150000      -0.46540000       2.00220000
