18
Properties=species:S:1:pos:R:3 gdb_106566=T pbc="F F F"
O       -0.00400000       1.36500000      -0.01390000
C       -0.04250000      -0.05510000       0.07280000
C       -1.44430000      -0.59160000       0.10540000
N       -2.44320000      -0.29950000      -1.01410000
C       -3.20570000      -1.16930000      -0.02090000
C       -1.93770000      -2.07580000      -0.00300000
O       -1.61030000      -2.80060000      -1.14140000
C       -2.59470000      -0.34700000       1.13130000
O       -2.56940000      -0.94880000       2.39800000
H       -0.25910000       1.60570000      -0.91020000
H        0.51230000      -0.52810000      -0.75080000
H        0.46810000      -0.32190000       1.00520000
H       -2.77180000       0.66920000      -0.94480000
H       -4.24740000      -1.44460000      -0.18850000
H       -1.79590000      -2.70130000       0.87480000
H       -1.78440000      -2.20160000      -1.88230000
H       -2.93780000       0.69590000       1.16600000
H       -2.06500000      -0.38410000       2.99210000
