18
Properties=species:S:1:pos:R:3 gdb_36804=T pbc="F F F"
N       -0.07070000      -1.09310000      -0.21230000
C       -0.02010000       0.06070000      -0.18080000
C        0.06940000       1.51650000      -0.13690000
C        1.51540000       1.99930000       0.03080000
O        1.47050000       3.40390000       0.06740000
C        2.74360000       4.00180000       0.21450000
C        2.56830000       5.49430000       0.23350000
C        3.65190000       6.38970000      -0.18610000
O        2.52690000       6.15430000      -1.03110000
H       -0.34740000       1.93620000      -1.05810000
H       -0.53680000       1.89370000       0.69320000
H        1.94730000       1.58890000       0.95740000
H        2.13270000       1.64170000      -0.80800000
H        3.21630000       3.66860000       1.15450000
H        3.40800000       3.72160000      -0.61770000
H        1.83720000       5.85830000       0.95580000
H        3.72090000       7.38710000       0.24480000
H        4.59500000       5.97010000      -0.53520000
