24
Properties=species:S:1:pos:R:3 gdb_64408=T pbc="F F F"
C       -0.01860000       1.54940000      -0.01120000
C       -0.00590000       0.01080000      -0.00210000
C       -1.46370000      -0.49050000       0.08020000
C        0.66360000      -0.52220000      -1.29040000
C        0.98970000      -2.01470000      -1.18820000
C        1.99540000      -2.28390000      -0.06390000
N        1.67160000      -1.63350000       1.22030000
C        2.20320000      -0.28840000       1.43150000
C        0.74430000      -0.48780000       1.23710000
H        0.99530000       1.95540000      -0.08020000
H       -0.59350000       1.92870000      -0.86410000
H       -0.47680000       1.94670000       0.90140000
H       -2.03850000      -0.16060000      -0.79190000
H       -1.52350000      -1.58150000       0.13130000
H       -1.95790000      -0.09390000       0.97340000
H        0.00110000      -0.32690000      -2.14170000
H        1.58740000       0.03770000      -1.48870000
H        0.07140000      -2.58490000      -1.00800000
H        1.40280000      -2.38610000      -2.13260000
H        2.06130000      -3.36240000       0.12120000
H        2.99440000      -1.96160000      -0.38620000
H        2.61020000      -0.08500000       2.41980000
H        2.76650000       0.16630000       0.61710000
H        0.12660000      -0.47440000       2.13580000
