18
Properties=species:S:1:pos:R:3 gdb_50852=T pbc="F F F"
N       -0.13910000       0.99690000       1.56310000
C       -0.55270000       0.54470000       0.45100000
N       -1.89730000       0.24950000       0.27610000
C       -2.41330000      -0.24760000      -0.90650000
O       -1.72460000      -0.46170000      -1.88190000
C       -3.91570000      -0.54280000      -0.89900000
C       -4.72320000       0.17440000       0.15490000
C       -5.93430000      -0.42980000       0.75440000
N       -4.70460000      -0.29660000       1.55960000
H        0.86550000       1.16020000       1.52460000
H        0.03280000       0.34030000      -0.44710000
H       -2.50430000       0.42170000       1.06800000
H       -4.27530000      -0.30500000      -1.90500000
H       -4.02700000      -1.62970000      -0.78450000
H       -4.69550000       1.26040000       0.08450000
H       -6.75810000       0.20440000       1.06730000
H       -6.22650000      -1.42290000       0.42330000
H       -4.24540000      -1.20470000       1.60790000
