16
Properties=species:S:1:pos:R:3 gdb_117614=T pbc="F F F"
C       -0.14810000       1.35520000      -0.06660000
O       -0.08130000      -0.05680000      -0.10940000
C        0.76340000      -0.55310000      -1.11770000
C        0.63590000      -2.09500000      -1.05330000
O       -0.72760000      -2.46040000      -1.11460000
C        1.35160000      -2.69700000      -2.17990000
C        1.95850000      -3.14770000      -3.11110000
C        1.23760000      -2.57620000       0.22480000
N        1.69110000      -2.94290000       1.22150000
H        0.83710000       1.79450000       0.14340000
H       -0.52390000       1.76820000      -1.01400000
H       -0.83560000       1.61930000       0.73890000
H        0.43440000      -0.22780000      -2.11540000
H        1.80800000      -0.24740000      -0.96690000
H       -1.18510000      -1.83260000      -0.53560000
H        2.49020000      -3.56690000      -3.93030000
