15
Properties=species:S:1:pos:R:3 gdb_1969=T pbc="F F F"
O        0.01780000       1.32880000      -0.31710000
C        0.01500000      -0.05150000       0.00990000
C       -1.42880000      -0.49770000       0.12190000
C       -2.25830000      -0.48630000      -1.20050000
C       -2.62600000      -1.95270000      -0.92750000
O       -3.40010000      -2.72220000      -1.41650000
C       -1.66400000      -2.03300000       0.27320000
H        0.93030000       1.61860000      -0.40780000
H        0.52220000      -0.64830000      -0.76800000
H        0.53860000      -0.24200000       0.96090000
H       -1.92250000       0.07400000       0.91140000
H       -3.09910000       0.20810000      -1.26930000
H       -1.64420000      -0.36840000      -2.10010000
H       -0.77970000      -2.64220000       0.05100000
H       -2.10240000      -2.39290000       1.20730000
