14
Properties=species:S:1:pos:R:3 gdb_33814=T pbc="F F F"
C        0.00620000      -1.22750000      -0.03120000
C        0.00520000      -0.02450000      -0.02100000
C       -0.01530000       1.39210000       0.00950000
C        0.24900000       2.27810000      -1.19500000
C        1.13270000       2.43700000       0.00360000
O        0.50220000       3.23350000       0.99700000
C       -0.57060000       2.26240000       1.14290000
C        2.55080000       2.28380000       0.01940000
N        3.69970000       2.14830000       0.02250000
H        0.01650000      -2.28960000      -0.04150000
H        0.68690000       1.75630000      -2.03850000
H       -0.43040000       3.09120000      -1.43510000
H       -1.55830000       2.70750000       0.98830000
H       -0.51390000       1.77450000       2.11950000
