22
Properties=species:S:1:pos:R:3 gdb_76629=T pbc="F F F"
C        0.06330000       0.96670000       1.21760000
C        0.36880000      -0.30540000       0.45810000
C        0.19650000      -0.40670000      -1.02450000
N        1.52410000      -0.46160000      -0.43300000
C        2.42180000       0.65930000      -0.66910000
C       -0.34790000      -1.64430000      -1.69380000
C       -1.71660000      -1.48180000      -2.31810000
C        0.57900000      -2.67800000      -2.18050000
O       -0.15290000      -2.85940000      -0.96270000
H        0.16250000       1.86430000       0.60250000
H       -0.96560000       0.93470000       1.59100000
H        0.72350000       1.07500000       2.08560000
H        0.17490000      -1.21850000       1.01730000
H       -0.07660000       0.52260000      -1.52980000
H        1.92480000       1.63710000      -0.76200000
H        3.14870000       0.72110000       0.14720000
H        2.97370000       0.47660000      -1.59700000
H       -1.69310000      -0.74220000      -3.12610000
H       -2.06590000      -2.43320000      -2.72560000
H       -2.44290000      -1.14080000      -1.57220000
H        0.28090000      -3.32630000      -3.00420000
H        1.64750000      -2.52660000      -2.04790000
