14
Properties=species:S:1:pos:R:3 gdb_4869=T pbc="F F F"
N        0.14180000       1.32450000       0.04520000
C       -0.03870000      -0.04570000       0.01760000
C       -1.11100000      -0.88380000       0.06700000
N       -0.64500000      -2.19300000       0.11770000
C        0.64330000      -2.09950000       0.09330000
C        1.65470000      -3.19110000       0.03540000
O        2.13560000      -3.43440000      -1.28340000
O        1.09000000      -0.79920000       0.03340000
H        0.94880000       1.63130000      -0.48300000
H       -0.68580000       1.83680000      -0.22610000
H       -2.16140000      -0.64400000       0.07560000
H        2.53540000      -2.92330000       0.62560000
H        1.19810000      -4.08590000       0.47700000
H        1.37470000      -3.68490000      -1.81880000
