21
Properties=species:S:1:pos:R:3 gdb_108374=T pbc="F F F"
C       -0.05590000       1.50190000      -0.12150000
C       -0.02110000      -0.01320000       0.12720000
C       -1.38350000      -0.62530000       0.04720000
O       -2.36760000      -0.19860000       1.00660000
C       -2.85320000      -1.56160000       1.14910000
C       -1.93240000      -2.04870000       0.04430000
C       -2.06760000      -1.14960000      -1.18560000
C       -3.37790000      -0.61800000      -1.71460000
O       -1.12320000      -1.46880000      -2.17960000
H        0.94190000       1.93660000      -0.01140000
H       -0.41260000       1.72420000      -1.13210000
H       -0.72350000       1.99680000       0.58980000
H        0.61440000      -0.50710000      -0.61320000
H        0.40390000      -0.21810000       1.11730000
H       -2.60010000      -1.95600000       2.14020000
H       -3.93600000      -1.63730000       0.99230000
H       -1.41190000      -2.99710000      -0.00120000
H       -3.98430000      -0.19200000      -0.91310000
H       -3.18190000       0.16870000      -2.44980000
H       -3.95790000      -1.40740000      -2.20850000
H       -1.42700000      -2.26350000      -2.63240000
