18
Properties=species:S:1:pos:R:3 gdb_31613=T pbc="F F F"
C       -0.07760000       1.43650000       0.06420000
N        0.03590000      -0.00410000       0.02910000
C        0.01440000      -0.76290000      -1.13070000
C        0.04440000      -2.08520000      -0.75890000
O        0.05530000      -3.12940000      -1.64120000
C        0.07170000      -2.14310000       0.66050000
C        0.06240000      -0.84060000       1.11540000
C        0.05800000      -0.33170000       2.52190000
O        0.30000000      -1.42940000       3.38410000
H        0.62310000       1.86450000       0.78790000
H        0.16870000       1.83670000      -0.92110000
H       -1.09100000       1.76580000       0.32710000
H       -0.01210000      -0.30160000      -2.10330000
H        0.08090000      -3.94620000      -1.13540000
H        0.11330000      -3.02140000       1.28540000
H        0.82850000       0.44990000       2.64980000
H       -0.90970000       0.14730000       2.75780000
H        0.16840000      -1.13000000       4.28780000
