19
Properties=species:S:1:pos:R:3 gdb_110017=T pbc="F F F"
C        0.30740000       1.62860000      -0.26700000
C        0.01420000       0.14860000       0.01190000
C        0.56890000      -0.76340000      -1.10050000
O        1.91800000      -1.09230000      -0.70630000
C        2.06530000      -0.92450000       0.62690000
O        3.10560000      -1.14160000       1.19320000
C        0.75810000      -0.42820000       1.23480000
C        1.01400000       0.45970000       2.46220000
O        1.64320000      -0.26810000       3.49190000
H        1.37880000       1.80860000      -0.40720000
H       -0.20600000       1.95040000      -1.17840000
H       -0.03650000       2.26770000       0.55070000
H       -1.06600000       0.00810000       0.10790000
H       -0.00050000      -1.69500000      -1.19490000
H        0.62380000      -0.28030000      -2.07850000
H        0.23080000      -1.32380000       1.59190000
H        1.60540000       1.34030000       2.16900000
H        0.06080000       0.82300000       2.86120000
H        2.45470000      -0.62830000       3.10480000
