23
Properties=species:S:1:pos:R:3 gdb_119871=T pbc="F F F"
C       -0.12180000       1.55930000      -0.12930000
C        0.02020000       0.03880000       0.00080000
C        0.77370000      -0.61130000      -1.18770000
C        1.52850000      -1.82400000      -0.59380000
C        1.60090000      -1.48040000       0.87300000
C        0.79750000      -0.46880000       1.21260000
C        0.59210000       0.06650000       2.60370000
C        1.53160000       1.22360000       2.95700000
O        1.22380000       1.63380000       4.28130000
H        0.85920000       2.04200000      -0.20550000
H       -0.68940000       1.81700000      -1.03000000
H       -0.64920000       1.99440000       0.72590000
H       -0.99840000      -0.37830000       0.06470000
H        0.10960000      -0.87870000      -2.01430000
H        1.50050000       0.11090000      -1.57800000
H        0.97470000      -2.76270000      -0.74290000
H        2.51200000      -1.97580000      -1.05350000
H        2.20280000      -2.04830000       1.57630000
H       -0.43930000       0.41610000       2.73460000
H        0.75320000      -0.72510000       3.34340000
H        2.57390000       0.87860000       2.87330000
H        1.40260000       2.05140000       2.24390000
H        1.80710000       2.36220000       4.51310000
