19
Properties=species:S:1:pos:R:3 gdb_98227=T pbc="F F F"
C       -0.18050000       1.40670000       0.00060000
N       -0.08240000      -0.05570000       0.00090000
C       -0.02120000      -0.75910000       1.23640000
C        0.31530000       0.07250000       2.46900000
O       -0.21880000      -1.94280000       1.31990000
C        0.04370000      -0.73990000      -1.22950000
O        0.28580000      -1.91800000      -1.31380000
C       -0.12850000       0.10760000      -2.51120000
N        0.08520000      -0.63990000      -3.73630000
H        0.78940000       1.89220000      -0.16200000
H       -0.86930000       1.74340000      -0.77430000
H       -0.58160000       1.75280000       0.95030000
H       -0.55720000       0.63410000       2.81990000
H        0.60010000      -0.62960000       3.25220000
H        1.12680000       0.78430000       2.29570000
H       -1.14220000       0.52970000      -2.52240000
H        0.55500000       0.96420000      -2.49060000
H        1.03600000      -1.00080000      -3.73390000
H       -0.49300000      -1.47630000      -3.70520000
