16
Properties=species:S:1:pos:R:3 gdb_20943=T pbc="F F F"
C        0.01190000       1.53040000      -0.01750000
C       -0.09980000       0.01280000      -0.11530000
N        0.83590000      -0.50540000      -1.10470000
C        0.87160000      -1.86460000      -1.34520000
N        1.34050000      -2.36440000      -2.49310000
N        1.25550000      -3.68450000      -2.29920000
N        0.76890000      -4.08500000      -1.14200000
C        0.50930000      -2.94150000      -0.50350000
H        1.03090000       1.82870000       0.24490000
H       -0.24800000       2.00650000      -0.97000000
H       -0.67170000       1.91700000       0.74320000
H        0.14710000      -0.43420000       0.85510000
H       -1.14060000      -0.27530000      -0.34020000
H        0.87670000       0.03520000      -1.95820000
H        1.54460000      -4.33670000      -3.00830000
H        0.09230000      -2.94200000       0.48950000
