18
Properties=species:S:1:pos:R:3 gdb_65492=T pbc="F F F"
O        0.30850000       1.52310000      -0.48760000
C       -0.00540000       0.23360000       0.00190000
C        0.11850000       0.02750000       1.55920000
C       -1.31020000      -0.52180000       1.54300000
C       -1.76350000      -1.80820000       2.11170000
N       -2.29470000      -0.52070000       2.61430000
C       -1.54680000       0.03030000       0.13690000
C        0.67090000      -0.80910000      -0.76170000
C        1.26630000      -1.64500000      -1.38900000
H        1.25330000       1.54940000      -0.67490000
H        0.92020000      -0.62020000       1.92030000
H        0.18140000       1.00940000       2.03890000
H       -2.48570000      -2.41930000       1.57650000
H       -1.06800000      -2.36730000       2.73330000
H       -1.85240000      -0.28200000       3.49920000
H       -2.03780000       1.00680000       0.15720000
H       -2.02790000      -0.61390000      -0.60000000
H        1.77860000      -2.38740000      -1.94970000
