14
Properties=species:S:1:pos:R:3 gdb_133731=T pbc="F F F"
C       -0.07280000       1.37930000       0.11630000
O        0.02650000      -0.04540000      -0.03200000
C        0.65290000      -0.46390000      -1.14640000
O        1.11180000       0.26500000      -1.98390000
C        0.68020000      -1.98260000      -1.16690000
C        1.37660000      -2.56090000      -2.38430000
F        2.65690000      -2.18490000      -2.45530000
F        1.35370000      -3.90470000      -2.31650000
F        0.77370000      -2.20660000      -3.52280000
H        0.92130000       1.83160000       0.14610000
H       -0.63290000       1.81300000      -0.71560000
H       -0.59680000       1.54160000       1.05770000
H        1.18520000      -2.34950000      -0.26930000
H       -0.34380000      -2.36480000      -1.13700000
