16
Properties=species:S:1:pos:R:3 gdb_35620=T pbc="F F F"
C       -0.50820000      -1.06790000      -0.73860000
C       -0.27920000       0.03450000      -0.31950000
C       -0.00850000       1.36520000       0.19390000
C       -0.21590000       1.54020000       1.72700000
C        0.75020000       2.64530000       2.06860000
C        1.64310000       2.86110000       1.10690000
C        1.44320000       1.91850000      -0.07150000
C        2.48600000       0.88620000      -0.09750000
N        3.33010000       0.09680000      -0.10730000
H       -0.69740000      -2.04490000      -1.10960000
H       -0.67650000       2.07850000      -0.30300000
H       -1.25740000       1.77850000       1.96280000
H        0.03100000       0.61890000       2.26900000
H        0.72230000       3.17140000       3.01600000
H        2.46440000       3.56590000       1.13540000
H        1.47760000       2.43430000      -1.03720000
