15
Properties=species:S:1:pos:R:3 gdb_24903=T pbc="F F F"
N       -0.11180000       1.24310000      -0.07870000
C       -0.00660000      -0.01780000       0.01560000
C       -1.23500000      -0.96480000       0.02540000
C       -0.54180000      -2.27840000      -0.06440000
C        0.80330000      -2.15620000      -0.01230000
N        1.16310000      -0.80150000       0.12480000
C        1.34860000      -3.47390000       0.00150000
C        0.25180000      -4.29180000      -0.04760000
O       -0.91470000      -3.58000000      -0.07350000
H        0.80180000       1.70060000      -0.06830000
H       -1.80480000      -0.82180000       0.95150000
H       -1.90140000      -0.71570000      -0.80610000
H        2.03240000      -0.43380000      -0.22960000
H        2.37830000      -3.79180000       0.03260000
H        0.14130000      -5.36260000      -0.08200000
