21
Properties=species:S:1:pos:R:3 gdb_72739=T pbc="F F F"
C       -0.06130000       1.54820000       0.00500000
C        0.04810000       0.04960000       0.10080000
C        0.90580000      -0.70820000      -0.96350000
C        1.80730000      -1.28760000       0.17630000
C        0.79820000      -0.76710000       1.20100000
C        0.86200000      -0.33490000       2.67010000
C       -0.63200000      -0.77590000       2.83440000
C       -0.60200000      -1.39820000       1.40850000
O       -1.22170000      -0.59740000       0.38060000
H        0.92220000       2.00280000      -0.15270000
H       -0.70120000       1.82400000      -0.84120000
H       -0.50230000       1.97180000       0.91250000
H        0.31470000      -1.45500000      -1.49690000
H        1.41950000      -0.07470000      -1.69080000
H        1.99890000      -2.36450000       0.16940000
H        2.76980000      -0.76980000       0.24030000
H        1.54420000      -0.95250000       3.26250000
H        1.09940000       0.71550000       2.86400000
H       -0.81610000      -1.48490000       3.64500000
H       -1.35010000       0.04330000       2.90920000
H       -0.83710000      -2.46260000       1.31380000
