20
Properties=species:S:1:pos:R:3 gdb_55628=T pbc="F F F"
C       -0.00150000       1.47820000      -0.23000000
C        0.04890000       0.01270000       0.13230000
N        0.14200000      -0.49650000       1.29310000
O       -0.02200000      -0.71670000      -0.99930000
C        0.00170000      -2.17920000      -1.00220000
C        1.33250000      -2.71030000      -0.44270000
C       -1.21550000      -2.75200000      -0.25640000
C       -0.09700000      -2.51700000      -2.42850000
C       -0.17610000      -2.84080000      -3.58230000
H        0.05300000       2.10390000       0.66230000
H        0.82850000       1.72850000      -0.89730000
H       -0.92690000       1.69970000      -0.76990000
H        0.18140000       0.23780000       1.99600000
H        1.40840000      -2.48620000       0.62050000
H        1.37860000      -3.79200000      -0.59490000
H        2.17020000      -2.25320000      -0.97510000
H       -2.13620000      -2.32350000      -0.66020000
H       -1.24820000      -3.83490000      -0.40290000
H       -1.14330000      -2.52790000       0.80710000
H       -0.24630000      -3.11840000      -4.60500000
