16
Properties=species:S:1:pos:R:3 gdb_16189=T pbc="F F F"
O        0.05870000       1.35060000      -0.33200000
C        0.03500000       0.02150000       0.16360000
C       -1.36550000      -0.52110000       0.20850000
C       -2.42670000       0.07370000       1.11600000
O       -3.51410000      -0.84460000       1.09820000
C       -3.04220000      -2.13980000       0.74830000
C       -1.76770000      -1.90950000      -0.03390000
O       -1.92030000      -0.92440000      -1.06220000
H       -0.31170000       1.32530000      -1.22160000
H        0.66390000      -0.64970000      -0.43890000
H        0.45700000       0.06630000       1.17340000
H       -2.01210000       0.19630000       2.13010000
H       -2.79690000       1.04370000       0.77260000
H       -2.81920000      -2.75260000       1.63790000
H       -3.82670000      -2.63770000       0.16950000
H       -1.07150000      -2.71990000      -0.23370000
