11
Properties=species:S:1:pos:R:3 gdb_129317=T pbc="F F F"
N       -0.09300000       1.26210000       0.19600000
C       -0.51450000       0.18610000      -0.30400000
O       -0.24310000      -0.32920000      -1.54400000
N        2.65430000      -3.38080000      -0.51390000
N        1.80670000      -2.69730000      -0.36880000
C       -0.93420000      -1.54510000      -1.64800000
O       -0.88420000      -2.22490000      -2.61640000
N       -1.66640000      -1.79220000      -0.43890000
C       -1.42020000      -0.79880000       0.32780000
H        0.52070000       1.76410000      -0.44900000
H       -1.82680000      -0.68530000       1.32640000
