17
Properties=species:S:1:pos:R:3 gdb_36468=T pbc="F F F"
C        0.04280000      -1.21620000      -0.13900000
C       -0.01950000      -0.01690000      -0.08770000
C       -0.05230000       1.43960000      -0.02650000
C        1.35570000       2.03450000       0.07970000
C        2.22230000       1.96060000      -1.19310000
O        2.20530000       3.39750000      -1.35040000
C        1.48770000       3.58050000      -0.10650000
C        0.27740000       4.37410000      -0.24000000
C       -0.72470000       5.03160000      -0.33490000
H        0.08010000      -2.27640000      -0.18440000
H       -0.55240000       1.84080000      -0.91630000
H       -0.65410000       1.76610000       0.83040000
H        1.84610000       1.66820000       0.98290000
H        3.23960000       1.57840000      -1.04970000
H        1.76430000       1.44950000      -2.04770000
H        2.13940000       4.04020000       0.64930000
H       -1.60560000       5.61870000      -0.42430000
