25
Properties=species:S:1:pos:R:3 gdb_103541=T pbc="F F F"
C        0.33470000       1.57780000       0.21680000
C        0.35310000       0.05190000       0.06210000
C        0.69600000      -0.47720000      -1.35770000
C       -0.41170000      -0.10130000      -2.35540000
C        2.06260000       0.03310000      -1.79090000
C        3.02090000      -0.88180000      -1.66090000
C        2.47560000      -2.19020000      -1.14340000
C        0.94910000      -2.02990000      -1.35600000
C        0.08710000      -2.87880000      -0.42130000
H        1.30960000       2.01700000      -0.01630000
H       -0.40930000       2.04950000      -0.43250000
H        0.08840000       1.85340000       1.24710000
H        1.08190000      -0.35830000       0.77170000
H       -0.62490000      -0.34680000       0.35920000
H       -0.55580000       0.98180000      -2.41840000
H       -0.16620000      -0.45850000      -3.36070000
H       -1.37130000      -0.54490000      -2.06470000
H        2.21570000       1.05260000      -2.13000000
H        4.07340000      -0.72140000      -1.86940000
H        2.87570000      -3.06560000      -1.66840000
H        2.72790000      -2.33090000      -0.08130000
H        0.74620000      -2.35900000      -2.38350000
H        0.27350000      -2.64970000       0.63260000
H       -0.98200000      -2.73440000      -0.61200000
H        0.30310000      -3.94270000      -0.56730000
