13
Properties=species:S:1:pos:R:3 gdb_29257=T pbc="F F F"
O       -0.00660000       1.38890000       0.32500000
C       -0.03800000       0.05890000       0.06660000
C       -1.16700000      -0.66870000      -0.01390000
N       -1.10570000      -2.01820000      -0.28120000
C        0.06780000      -2.71180000      -0.48120000
N        0.07300000      -3.95210000      -0.72420000
O        1.21540000      -1.95260000      -0.39540000
C        1.24340000      -0.59750000      -0.13180000
O        2.30300000      -0.02490000      -0.07810000
H        0.93280000       1.63160000       0.32110000
H       -2.15260000      -0.24440000       0.12300000
H       -1.94400000      -2.57210000      -0.34370000
H        1.02270000      -4.29470000      -0.84330000
