16
Properties=species:S:1:pos:R:3 gdb_66527=T pbc="F F F"
C        0.01960000       1.51560000       0.01080000
C        0.00130000       0.02480000       0.00250000
C        0.84240000      -0.98710000      -0.76420000
C        0.83950000      -0.99540000       0.76140000
C       -0.33820000      -2.01110000       0.74530000
C       -0.33520000      -2.00290000      -0.76370000
C       -1.20130000      -0.98390000      -0.00540000
C       -2.60360000      -0.80720000      -0.00720000
N       -3.75130000      -0.64330000      -0.00910000
H        1.05140000       1.88300000       0.01310000
H       -0.48110000       1.92620000      -0.87300000
H       -0.48160000       1.91650000       0.89870000
H        1.65510000      -0.81930000      -1.45720000
H        1.64940000      -0.83530000       1.45930000
H       -0.67690000      -2.76700000       1.44020000
H       -0.67110000      -2.75130000      -1.46810000
