17
Properties=species:S:1:pos:R:3 gdb_621=T pbc="F F F"
C        0.25850000       1.57790000       0.06670000
C       -0.19720000       0.12600000      -0.06230000
N        0.47600000      -0.51110000      -1.18950000
C        1.72460000      -1.21980000      -0.92420000
C        0.49440000      -1.97000000      -1.30970000
C       -0.20320000      -2.89800000      -0.33750000
H        1.33210000       1.63200000       0.27550000
H        0.06880000       2.12280000      -0.86220000
H       -0.27090000       2.07960000       0.88290000
H       -0.02510000      -0.39550000       0.89400000
H       -1.27660000       0.09100000      -0.25460000
H        2.53390000      -1.05690000      -1.63170000
H        2.04480000      -1.30980000       0.11470000
H        0.41510000      -2.29540000      -2.34690000
H       -0.03340000      -2.61920000       0.70490000
H       -1.28480000      -2.91540000      -0.51320000
H        0.16750000      -3.92000000      -0.47060000
