16
Properties=species:S:1:pos:R:3 gdb_128056=T pbc="F F F"
C       -0.05450000       1.41120000       0.07900000
N        0.03310000      -0.02610000      -0.05720000
C        0.61260000      -0.67630000      -1.06660000
N        1.18550000      -0.03550000      -2.08920000
H        1.59300000      -0.62520000      -2.80150000
H        1.21730000       0.96400000      -2.17350000
C        0.62360000      -2.09620000      -1.05840000
N        1.18570000      -2.84410000      -2.03920000
C        0.93170000      -4.06550000      -1.56650000
N        0.26410000      -4.08460000      -0.38180000
N        0.06630000      -2.80610000      -0.05690000
H        0.93910000       1.87380000       0.13290000
H       -0.61100000       1.86260000      -0.75210000
H       -0.58420000       1.64350000       1.00290000
H       -0.35560000      -0.64420000       0.64500000
H        1.22620000      -4.97590000      -2.07040000
