18
Properties=species:S:1:pos:R:3 gdb_30072=T pbc="F F F"
C        0.06930000       1.41630000       0.19950000
N        0.07500000      -0.03340000       0.10860000
C        0.04130000      -0.74300000      -1.06550000
C       -0.05560000      -2.08250000      -0.76860000
C       -0.09140000      -2.19200000       0.64510000
C       -0.02140000      -0.91620000       1.16800000
C        0.03190000      -0.46040000       2.59590000
C        1.47000000      -0.11490000       2.95600000
O        1.88690000       1.00590000       3.10880000
H        0.71220000       1.75330000       1.01480000
H        0.44780000       1.82960000      -0.73720000
H       -0.94310000       1.80350000       0.36630000
H        0.08280000      -0.22820000      -2.01270000
H       -0.09220000      -2.88890000      -1.48460000
H       -0.16020000      -3.10000000       1.22570000
H       -0.60010000       0.41180000       2.79060000
H       -0.30390000      -1.28520000       3.23330000
H        2.14670000      -0.99610000       3.01720000
