16
Properties=species:S:1:pos:R:3 gdb_49775=T pbc="F F F"
O       -0.51560000       0.37700000      -0.46000000
C       -0.18020000       1.49800000      -0.18820000
C        1.26230000       1.89770000       0.11970000
C        1.82930000       2.60610000      -1.09540000
C        1.95550000       3.91870000      -0.91020000
C        1.54440000       4.35520000       0.47280000
C        1.40930000       2.99460000       1.22820000
C        0.35340000       2.98600000       2.23730000
N       -0.48420000       2.98690000       3.03400000
H       -0.90390000       2.34280000      -0.19500000
H        1.80110000       0.98160000       0.37610000
H        2.03610000       2.06870000      -2.01290000
H        2.30000000       4.62300000      -1.65870000
H        2.27520000       5.00950000       0.95810000
H        0.59610000       4.90560000       0.45570000
H        2.35390000       2.79610000       1.74410000
