14
Properties=species:S:1:pos:R:3 gdb_49216=T pbc="F F F"
O       -0.96380000       1.29640000       0.19010000
C        0.13310000       0.89060000      -0.08280000
C        1.36670000       1.75260000      -0.13850000
N        2.46020000       1.18590000      -0.44860000
C        3.65580000       1.99170000      -0.60520000
C        3.57790000       3.43090000      -0.12110000
O        4.51790000       4.18450000      -0.14520000
C        2.24170000       3.87790000       0.45740000
O        1.12260000       3.04860000       0.13420000
H        0.35890000      -0.16460000      -0.32990000
H        4.49950000       1.50260000      -0.10270000
H        3.93110000       2.01220000      -1.66900000
H        2.34860000       3.91650000       1.55060000
H        2.01170000       4.88650000       0.10760000
