20
Properties=species:S:1:pos:R:3 gdb_5965=T pbc="F F F"
C       -0.07100000       1.61260000      -0.04650000
C        0.05600000       0.08950000       0.05640000
C        0.71660000      -0.51520000      -1.18800000
C        0.73130000      -2.06560000      -1.23410000
C        1.46070000      -2.68360000      -0.02810000
N       -0.65310000      -2.56000000      -1.24620000
C        1.45070000      -2.46870000      -2.47140000
N        1.97240000      -2.79570000      -3.45080000
H        0.90870000       2.08820000      -0.16680000
H       -0.68600000       1.90290000      -0.90550000
H       -0.53560000       2.03060000       0.85160000
H        0.64170000      -0.16210000       0.94800000
H       -0.93060000      -0.36370000       0.19410000
H        0.19390000      -0.16000000      -2.08580000
H        1.74920000      -0.15860000      -1.27910000
H        0.90650000      -2.46320000       0.88600000
H        1.52950000      -3.77010000      -0.13680000
H        2.47570000      -2.28790000       0.05850000
H       -1.12970000      -2.23760000      -2.08420000
H       -0.65930000      -3.57550000      -1.28430000
