23
Properties=species:S:1:pos:R:3 gdb_57427=T pbc="F F F"
C       -0.14940000       1.53560000       0.25600000
C       -0.07020000       0.00940000       0.07080000
C        0.51460000      -0.63800000       1.34180000
C       -1.49800000      -0.52750000      -0.16320000
C        0.77900000      -0.42060000      -1.13240000
C        1.10550000       0.44300000      -2.31510000
C        2.23170000      -0.02790000      -1.40260000
C        2.98430000       0.89580000      -0.60440000
C        3.67350000       1.64050000       0.04410000
H        0.83760000       1.98700000       0.37610000
H       -0.64820000       2.01620000      -0.59190000
H       -0.73540000       1.76680000       1.15200000
H       -0.11850000      -0.42920000       2.21130000
H        0.58270000      -1.72630000       1.23300000
H        1.51780000      -0.25570000       1.54980000
H       -1.92670000      -0.12220000      -1.08610000
H       -1.50530000      -1.62040000      -0.24040000
H       -2.15720000      -0.24760000       0.66550000
H        0.60500000      -1.46570000      -1.38150000
H        1.05610000       0.02050000      -3.31270000
H        0.85920000       1.49650000      -2.26060000
H        2.84060000      -0.83610000      -1.79940000
H        4.26820000       2.30440000       0.62060000
