14
Properties=species:S:1:pos:R:3 gdb_125427=T pbc="F F F"
C        0.02590000       1.45920000      -0.00760000
C       -0.05980000      -0.02270000       0.02410000
N       -1.08530000      -0.78360000      -0.20910000
C       -0.56090000      -2.04010000      -0.03070000
N        0.70690000      -2.05990000       0.29220000
O        1.05520000      -0.71460000       0.33230000
C       -1.36500000      -3.30310000      -0.18960000
N       -0.64410000      -4.43280000       0.03430000
O       -2.53860000      -3.27820000      -0.48880000
H        0.76630000       1.78660000      -0.74350000
H       -0.95020000       1.86610000      -0.26980000
H        0.33220000       1.84820000       0.96800000
H        0.33070000      -4.39230000       0.28050000
H       -1.10820000      -5.32110000      -0.05180000
