18
Properties=species:S:1:pos:R:3 gdb_40128=T pbc="F F F"
C       -0.09990000       1.49240000      -0.02770000
N        1.21130000       0.81910000      -0.01150000
C       -0.02530000       0.01070000       0.01360000
C       -0.28970000      -0.74430000       1.31060000
C        0.13050000      -2.19070000       1.23280000
C        0.15210000      -2.87050000       0.08530000
C       -0.23730000      -2.22510000      -1.19280000
O       -1.52290000      -1.55340000      -1.22540000
C       -0.34580000      -0.75400000      -1.23400000
H       -0.33910000       2.04530000       0.87710000
H       -0.43950000       1.96400000      -0.94670000
H        1.61730000       0.81970000      -0.94550000
H        0.23810000      -0.23430000       2.12170000
H       -1.36190000      -0.69290000       1.54350000
H        0.40030000      -2.68330000       2.16270000
H        0.45280000      -3.91290000       0.05380000
H       -0.00950000      -2.75920000      -2.11280000
H       -0.15180000      -0.22730000      -2.17140000
