17
Properties=species:S:1:pos:R:3 gdb_18499=T pbc="F F F"
O       -0.26650000      -0.08710000       0.14660000
C       -0.11270000       1.09300000      -0.02840000
C        1.22910000       1.79830000      -0.02060000
C        1.37000000       2.77000000      -1.18720000
C        2.72030000       3.49170000      -1.46140000
C        2.65500000       2.86690000      -2.85410000
C        2.56960000       1.39960000      -2.76490000
N        1.32740000       2.17640000      -2.57740000
H       -0.98400000       1.76730000      -0.20030000
H        1.28710000       2.37870000       0.91270000
H        2.02000000       1.04460000       0.01350000
H        0.55210000       3.49600000      -1.13880000
H        2.63010000       4.57900000      -1.45030000
H        3.58240000       3.20380000      -0.85170000
H        2.83600000       3.38970000      -3.78730000
H        2.55860000       0.83330000      -3.69060000
H        3.02360000       0.87750000      -1.92640000
