19
Properties=species:S:1:pos:R:3 gdb_41243=T pbc="F F F"
C        0.00130000       1.53150000      -0.22400000
C        1.54800000       1.52570000       0.09990000
C        1.24960000       0.27310000       0.92070000
O        1.86630000      -1.03070000       1.09570000
C        0.74160000      -1.23730000       1.97270000
C       -0.70020000      -0.79170000       1.25780000
C       -0.83330000       0.23250000       2.40620000
C        0.70150000       0.23190000       2.40460000
C       -0.02540000       0.00200000       0.13780000
H       -0.55840000       2.17020000       0.46120000
H       -0.27790000       1.78460000      -1.24750000
H        2.13840000       1.30200000      -0.79280000
H        1.97960000       2.38820000       0.61330000
H        0.79730000      -2.11990000       2.60710000
H       -1.48740000      -1.51010000       1.03550000
H       -1.38440000       1.15500000       2.20990000
H       -1.21200000      -0.22210000       3.32680000
H        1.33960000       0.64020000       3.18750000
H        0.18660000      -0.59880000      -0.74910000
