15
Properties=species:S:1:pos:R:3 gdb_30500=T pbc="F F F"
C        0.00650000       1.44680000       0.05560000
N       -0.00870000      -0.00170000      -0.02050000
C        0.53410000      -0.68760000       0.88170000
O        1.17010000       0.01950000       1.99040000
C        1.74240000      -0.70030000       2.94140000
N        1.80730000      -1.97730000       3.00780000
C        1.18760000      -2.61770000       1.92860000
N        1.25280000      -3.96090000       1.99350000
N        0.58750000      -2.04580000       0.92540000
H        1.02700000       1.85330000       0.06320000
H       -0.51330000       1.85050000      -0.81660000
H       -0.49650000       1.82240000       0.95690000
H        2.18570000      -0.08050000       3.71900000
H        1.71600000      -4.39550000       2.77060000
H        0.83500000      -4.51110000       1.26380000
