15
Properties=species:S:1:pos:R:3 gdb_51937=T pbc="F F F"
O       -0.32920000       1.33970000      -0.89200000
C        0.08760000       1.64240000       0.20490000
N        1.37420000       1.48440000       0.62290000
C        2.41520000       0.98250000      -0.26400000
C        3.53970000       1.90590000      -0.39210000
C        4.46880000       2.66430000      -0.47160000
C        5.59670000       3.58620000      -0.58140000
C        6.26600000       3.82650000       0.70440000
N        6.79460000       4.02170000       1.71190000
H       -0.54930000       2.07820000       0.99840000
H        1.63650000       1.81340000       1.53840000
H        2.77780000       0.00630000       0.08370000
H        1.92960000       0.82130000      -1.23180000
H        6.33990000       3.19720000      -1.28910000
H        5.26780000       4.55280000      -0.98400000
