19
Properties=species:S:1:pos:R:3 gdb_57811=T pbc="F F F"
C        0.03880000       1.53830000      -0.09040000
C        0.01760000       0.01480000       0.10180000
O        0.72690000      -0.37390000       1.27720000
C       -1.35240000      -0.51010000       0.09380000
C       -2.48870000      -0.91070000       0.12900000
C       -3.84490000      -1.44390000       0.15220000
C       -3.88110000      -2.98110000      -0.06200000
C       -5.23880000      -3.50860000      -0.03710000
C       -6.37100000      -3.91110000      -0.01100000
H        1.07290000       1.89240000      -0.07310000
H       -0.42070000       1.81780000      -1.04290000
H       -0.51700000       2.03260000       0.71300000
H        0.57990000      -0.44870000      -0.71800000
H        0.18840000      -0.11740000       2.03410000
H       -4.32830000      -1.20730000       1.10720000
H       -4.45180000      -0.96260000      -0.62350000
H       -3.40200000      -3.21890000      -1.01850000
H       -3.27510000      -3.46340000       0.71330000
H       -7.36510000      -4.28370000       0.00910000
