20
Properties=species:S:1:pos:R:3 gdb_88058=T pbc="F F F"
C       -0.20270000       1.33980000      -0.15920000
C        0.00950000      -0.14030000       0.03990000
N        1.39980000      -0.63110000      -0.04680000
C        0.70680000      -0.70280000       1.22730000
C        1.14270000      -0.01040000       2.52080000
C        0.43110000      -1.14630000       3.31120000
C        0.30670000      -1.98700000       2.00570000
C       -1.03910000      -2.55040000       1.64710000
O       -1.21610000      -3.53070000       0.96730000
H        0.60630000       1.91230000       0.30190000
H       -0.22260000       1.58710000      -1.22580000
H       -1.15330000       1.66210000       0.27990000
H       -0.75600000      -0.77660000      -0.40410000
H        1.43790000      -1.54620000      -0.49060000
H        2.22960000      -0.02140000       2.63970000
H        0.78270000       1.00800000       2.68630000
H        0.98900000      -1.61000000       4.12560000
H       -0.54990000      -0.84200000       3.68860000
H        1.06660000      -2.76810000       1.91020000
H       -1.90140000      -1.95320000       2.02870000
