20
Properties=species:S:1:pos:R:3 gdb_114396=T pbc="F F F"
C        0.00300000       1.56960000      -0.06100000
C        0.01650000       0.05250000       0.15380000
C       -1.36320000      -0.58060000       0.01850000
C       -2.04580000      -0.61880000      -1.38740000
C       -2.26020000      -2.15910000      -1.24730000
C       -1.48920000      -2.13340000       0.11350000
N       -0.44260000      -2.91770000      -0.54500000
C       -1.05020000      -2.94860000      -1.78840000
O       -0.69940000      -3.38490000      -2.85100000
H        1.00840000       1.99170000       0.03010000
H       -0.37570000       1.82600000      -1.05610000
H       -0.63690000       2.06860000       0.67520000
H        0.70000000      -0.41230000      -0.56780000
H        0.41900000      -0.17290000       1.15100000
H       -2.04440000      -0.12960000       0.74940000
H       -2.97430000      -0.04860000      -1.44760000
H       -1.41350000      -0.33280000      -2.23220000
H       -3.25670000      -2.57240000      -1.38450000
H       -1.86300000      -2.56820000       1.04190000
H        0.52950000      -3.05540000      -0.30440000
