21
Properties=species:S:1:pos:R:3 gdb_104284=T pbc="F F F"
C       -0.07770000       1.50430000       0.09190000
C       -0.13820000      -0.01090000      -0.12370000
C        0.72990000      -0.49030000      -1.29360000
O        0.38800000       0.16540000      -2.49600000
C        2.25640000      -0.43740000      -1.01940000
C        2.24780000      -1.95310000      -0.68310000
C        0.87530000      -2.05600000      -1.39630000
C       -0.19990000      -2.96040000      -0.86440000
O       -1.38260000      -2.76570000      -1.01380000
H        0.93370000       1.83680000       0.34710000
H       -0.37950000       2.03790000      -0.81300000
H       -0.74210000       1.80580000       0.90680000
H        0.17260000      -0.53290000       0.79080000
H       -1.17210000      -0.32590000      -0.30800000
H       -0.56190000       0.06250000      -2.62770000
H        2.78990000      -0.23070000      -1.94980000
H        2.60290000       0.25150000      -0.24650000
H        3.06490000      -2.55730000      -1.08030000
H        2.16860000      -2.14230000       0.39190000
H        1.01610000      -2.29910000      -2.45660000
H        0.16230000      -3.85590000      -0.30560000
