14
Properties=species:S:1:pos:R:3 gdb_130924=T pbc="F F F"
O       -0.43300000       0.54730000      -0.64900000
C        0.23200000       0.89200000       0.29160000
C        1.35070000       1.91160000       0.21020000
C        1.45760000       2.72450000      -1.14290000
N        1.09740000       3.90250000      -0.32210000
N        0.98220000       5.23950000      -0.17560000
C        0.82160000       5.29940000       1.15270000
N        0.86180000       4.11030000       1.84770000
C        1.04400000       3.27400000       0.84540000
H        0.06030000       0.48530000       1.31090000
H        2.28880000       1.46220000       0.55300000
H        2.46020000       2.78050000      -1.57010000
H        0.71620000       2.45670000      -1.89540000
H        0.66380000       6.24650000       1.64700000
