16
Properties=species:S:1:pos:R:3 gdb_130153=T pbc="F F F"
N        0.01130000       1.31510000      -0.33640000
C        0.04990000      -0.07070000      -0.07050000
N       -1.02280000      -0.83210000       0.12960000
N       -0.52320000      -2.07320000       0.28820000
C        0.83630000      -2.13920000       0.17120000
C        1.58750000      -3.42450000       0.28510000
O        0.92550000      -4.49540000      -0.38460000
C        1.23620000      -0.83970000      -0.06420000
O        2.50670000      -0.39020000      -0.25810000
H        0.23410000       1.86160000       0.49110000
H       -0.91930000       1.58580000      -0.63700000
H       -1.14530000      -2.85930000       0.36400000
H        2.61190000      -3.26980000      -0.08030000
H        1.66300000      -3.75220000       1.32870000
H        0.87250000      -4.26040000      -1.31750000
H        2.42700000       0.48740000      -0.65450000
