14
Properties=species:S:1:pos:R:3 gdb_131473=T pbc="F F F"
O        0.18510000       1.42780000      -0.17880000
C        0.05180000       0.02110000      -0.05920000
C        0.63710000      -0.54930000       1.24160000
C       -0.24070000      -1.29630000       1.93340000
C       -1.50110000      -1.30750000       1.18940000
N       -2.68950000      -1.82860000       1.32940000
O       -3.39180000      -1.36380000       0.19900000
C       -2.57490000      -0.59590000      -0.56160000
C       -1.35620000      -0.51830000       0.01200000
H       -0.30970000       1.82770000       0.54580000
H        0.59580000      -0.38330000      -0.92160000
H        1.65810000      -0.33270000       1.53150000
H       -0.06660000      -1.80120000       2.87390000
H       -3.02630000      -0.19310000      -1.45500000
