11
Properties=species:S:1:pos:R:3 gdb_130773=T pbc="F F F"
O       -0.02000000      -0.06540000       0.00390000
C        0.01650000       1.13180000       0.00900000
O       -1.19540000       1.82720000       0.02920000
N       -1.30270000       3.20200000       0.03710000
C       -0.21250000       3.88480000       0.02510000
C        1.11290000       3.30300000       0.00390000
C        1.21940000       1.95540000      -0.00390000
C        2.25300000       4.16520000      -0.00790000
N        3.16120000       4.88170000      -0.01720000
H       -0.34620000       4.96090000       0.03200000
H        2.16840000       1.43520000      -0.01950000
