18
Properties=species:S:1:pos:R:3 gdb_45134=T pbc="F F F"
O        0.01600000      -0.01260000      -0.53170000
C       -0.00750000       1.12440000      -0.10130000
C       -1.33020000       1.84840000       0.13970000
C       -1.42220000       3.14830000      -0.63680000
N       -1.97510000       4.32330000       0.06610000
C       -0.54350000       4.28450000      -0.28080000
C        0.44280000       4.14590000       0.87140000
C        1.47490000       3.06650000       0.64800000
C        1.27150000       1.80930000       0.22660000
H       -2.13690000       1.16170000      -0.12790000
H       -1.42290000       2.07490000       1.20780000
H       -1.66850000       3.03160000      -1.68990000
H       -2.48240000       4.91680000      -0.58520000
H       -0.20390000       4.91610000      -1.09890000
H        0.94600000       5.10140000       1.04870000
H       -0.12930000       3.93500000       1.78290000
H        2.50450000       3.35070000       0.85740000
H        2.12770000       1.15210000       0.09890000
