16
Properties=species:S:1:pos:R:3 gdb_54742=T pbc="F F F"
C       -0.55170000       1.18390000       0.09410000
C        0.29830000      -0.07030000       0.08880000
O        0.91130000      -0.44030000       1.06580000
C        0.33480000      -0.82500000      -1.21990000
C        0.93680000      -2.18200000      -1.39030000
N        0.76630000      -3.03310000      -0.20680000
C       -0.63760000      -2.89060000      -0.24390000
O       -1.50250000      -3.29270000       0.47710000
C       -0.56920000      -2.04710000      -1.51500000
H       -0.17040000       1.90220000      -0.64110000
H       -1.58030000       0.94460000      -0.19700000
H       -0.54060000       1.63490000       1.08660000
H        0.40030000      -0.17780000      -2.09340000
H        1.65220000      -2.44120000      -2.15970000
H        1.27080000      -2.83080000       0.64960000
H       -1.21220000      -2.08100000      -2.38310000
