16
Properties=species:S:1:pos:R:3 gdb_93618=T pbc="F F F"
O        0.36760000       1.15250000       0.68210000
C        0.06560000      -0.09970000       0.14500000
C       -1.42440000      -0.45220000       0.07360000
C       -1.45550000      -1.63900000      -0.91420000
C       -0.39070000      -1.29500000      -2.00080000
C       -0.96510000      -0.76800000      -3.23310000
N       -1.44330000      -0.34960000      -4.19830000
C        0.50580000      -0.22850000      -1.30980000
O        1.35400000       0.44700000      -1.82350000
H        1.05920000       1.53400000       0.12170000
H        0.58550000      -0.90760000       0.69820000
H       -1.85050000      -0.70250000       1.04650000
H       -1.97300000       0.40720000      -0.32760000
H       -1.15820000      -2.56210000      -0.40810000
H       -2.44250000      -1.80360000      -1.34670000
H        0.23170000      -2.15870000      -2.25950000
