16
Properties=species:S:1:pos:R:3 gdb_65876=T pbc="F F F"
C       -0.19480000       1.51870000       0.05220000
C        0.09750000       0.04120000      -0.05280000
O        0.96130000      -0.23160000      -1.14430000
C        1.94510000      -1.17130000      -0.73430000
C        1.84270000      -1.19960000       0.77390000
N        2.61340000      -1.80740000       1.55920000
O        0.76270000      -0.43660000       1.12350000
C       -1.16250000      -0.82720000      -0.23060000
O       -2.27810000      -0.39610000      -0.32140000
H        0.73980000       2.06500000       0.19290000
H       -0.68260000       1.85920000      -0.86320000
H       -0.86530000       1.71060000       0.89180000
H        1.75980000      -2.16610000      -1.15820000
H        2.93240000      -0.83350000      -1.06080000
H        2.33040000      -1.68270000       2.53170000
H       -0.93620000      -1.91570000      -0.28670000
