18
Properties=species:S:1:pos:R:3 gdb_16230=T pbc="F F F"
O        0.26100000       1.18430000      -0.51360000
C        0.07960000      -0.14570000      -0.03120000
C        0.57350000      -0.33520000       1.38240000
C       -0.35940000      -0.83490000       2.19070000
C       -1.65840000      -1.11540000       1.47910000
C       -1.39220000      -0.61860000       0.05040000
C       -2.45110000       0.12400000      -0.72740000
C       -2.04860000      -1.26740000      -1.14000000
H       -0.18000000       1.77220000       0.11070000
H        0.65040000      -0.75410000      -0.74380000
H        1.58500000      -0.06570000       1.66480000
H       -0.22330000      -1.04620000       3.24630000
H       -1.89560000      -2.18790000       1.50210000
H       -2.50520000      -0.60650000       1.95900000
H       -3.42110000       0.26060000      -0.25980000
H       -2.12090000       0.95070000      -1.34610000
H       -1.45940000      -1.37740000      -2.04540000
H       -2.74450000      -2.08080000      -0.95880000
