21
Properties=species:S:1:pos:R:3 gdb_120974=T pbc="F F F"
O       -0.48380000       1.44820000       0.50830000
C       -0.14740000       0.10430000       0.19580000
C       -1.44020000      -0.70260000       0.16730000
C       -1.23970000      -2.17810000      -0.21590000
C       -0.56070000      -3.02200000       0.90880000
C       -1.69500000      -3.75190000       1.59690000
O       -2.78930000      -2.89790000       1.96490000
C       -2.90000000      -3.67840000       0.76460000
C       -2.59170000      -2.90260000      -0.49790000
H        0.33000000       1.95780000       0.55820000
H        0.35120000       0.03730000      -0.78650000
H        0.55210000      -0.30930000       0.93990000
H       -1.93440000      -0.63530000       1.14090000
H       -2.10680000      -0.22570000      -0.56150000
H       -0.61980000      -2.20850000      -1.11910000
H        0.13210000      -3.76180000       0.48980000
H        0.01270000      -2.40360000       1.60650000
H       -1.49660000      -4.57220000       2.28280000
H       -3.67610000      -4.44000000       0.77710000
H       -3.38770000      -2.19850000      -0.76090000
H       -2.49660000      -3.61140000      -1.32970000
