17
Properties=species:S:1:pos:R:3 gdb_125423=T pbc="F F F"
C       -0.21200000       1.46370000       0.08810000
C       -0.05030000      -0.01190000      -0.05150000
N       -0.06380000      -0.70640000      -1.17720000
C        0.14880000      -1.99050000      -0.76320000
N        0.28320000      -2.13250000       0.54860000
N        0.15810000      -0.85380000       0.98370000
C        0.21420000      -3.13300000      -1.69520000
C        1.30900000      -4.13820000      -1.55340000
N       -0.06820000      -4.49040000      -1.19800000
H        0.74730000       1.97820000      -0.03530000
H       -0.88830000       1.83020000      -0.68620000
H       -0.61710000       1.73330000       1.06750000
H        0.20440000      -0.65360000       1.96940000
H       -0.17640000      -2.91200000      -2.68320000
H        1.69940000      -4.63330000      -2.43840000
H        2.02780000      -3.97080000      -0.75640000
H       -0.17770000      -4.43750000      -0.18670000
