12
Properties=species:S:1:pos:R:3 gdb_1017=T pbc="F F F"
C        0.01890000      -1.21010000      -0.00410000
C       -0.00240000      -0.00530000       0.00290000
C       -0.00960000       1.40900000       0.01080000
C       -1.13010000       2.22370000       0.03010000
N       -0.70450000       3.52070000       0.03170000
C        0.66930000       3.56730000       0.01380000
C        1.13180000       2.27720000       0.00060000
H        0.03370000      -2.27110000      -0.01010000
H       -2.17680000       1.96890000       0.04250000
H       -1.30950000       4.32290000       0.04410000
H        1.19330000       4.50910000       0.01220000
H        2.16300000       1.96310000      -0.01480000
