27
Properties=species:S:1:pos:R:3 gdb_113927=T pbc="F F F"
C        0.44240000       1.53460000       0.22100000
C       -0.12450000       0.13990000      -0.07040000
C        0.48240000      -0.48320000      -1.31220000
C        1.77650000      -1.25940000      -1.24550000
C        0.48430000      -1.97300000      -1.57760000
C       -0.14930000      -2.97790000      -0.63310000
C        0.20180000      -4.44670000      -0.94490000
C        1.70030000      -4.73820000      -0.78730000
C       -0.63170000      -5.39570000      -0.07370000
H        1.52560000       1.49310000       0.37660000
H        0.25540000       2.21890000      -0.61410000
H       -0.01170000       1.97070000       1.11650000
H        0.04650000      -0.50790000       0.79670000
H       -1.21440000       0.20770000      -0.18840000
H        0.36050000       0.13400000      -2.20060000
H        2.52110000      -1.11990000      -2.02210000
H        2.19660000      -1.43590000      -0.25920000
H        0.36070000      -2.24050000      -2.62570000
H        0.13860000      -2.75900000       0.40340000
H       -1.24220000      -2.86930000      -0.67330000
H       -0.06800000      -4.63240000      -1.99530000
H        2.02260000      -4.56980000       0.24780000
H        1.92440000      -5.78100000      -1.03650000
H        2.30790000      -4.09870000      -1.43290000
H       -1.70520000      -5.22650000      -0.21060000
H       -0.42320000      -6.44340000      -0.31500000
H       -0.40580000      -5.25060000       0.98990000
