16
Properties=species:S:1:pos:R:3 gdb_10257=T pbc="F F F"
C        0.05200000       1.53170000       0.09550000
C        0.01590000       0.01550000      -0.01010000
O        0.69260000      -0.50330000       1.11430000
C       -1.45630000      -0.53410000      -0.04550000
C       -2.19000000      -0.06360000      -1.22090000
C       -2.76770000       0.33660000      -2.19500000
C       -1.43360000      -1.99880000       0.02220000
C       -1.34640000      -3.19560000       0.09520000
H        1.09000000       1.87280000       0.11520000
H       -0.45740000       1.99310000      -0.75310000
H       -0.43120000       1.85830000       1.02200000
H        0.49860000      -0.30600000      -0.94570000
H        0.63930000      -1.46610000       1.06910000
H       -1.94720000      -0.15440000       0.86190000
H       -3.28860000       0.68600000      -3.05200000
H       -1.30530000      -4.25570000       0.15000000
