16
Properties=species:S:1:pos:R:3 gdb_35242=T pbc="F F F"
N       -0.09170000      -1.14350000      -0.06670000
C       -0.03910000       0.01080000      -0.03590000
C        0.03180000       1.45600000      -0.03470000
O        0.54680000       2.07790000       1.14710000
C        1.33820000       2.14670000      -0.03640000
C        2.70140000       1.46150000      -0.04700000
C        3.53350000       2.41910000      -0.91640000
O        2.94510000       3.70300000      -0.72500000
C        1.54460000       3.50590000      -0.70970000
H       -0.83510000       1.94620000      -0.47600000
H        3.07920000       1.43060000       0.97860000
H        2.66490000       0.43990000      -0.43100000
H        4.58200000       2.48410000      -0.62030000
H        3.48600000       2.12710000      -1.97770000
H        1.13630000       3.49100000      -1.73400000
H        1.07250000       4.31600000      -0.14870000
