20
Properties=species:S:1:pos:R:3 gdb_23527=T pbc="F F F"
C       -0.15090000       1.58660000      -0.00560000
C        0.03440000       0.07600000       0.01540000
C        1.17420000      -0.62610000      -0.81710000
C        2.45830000       0.04300000      -0.26610000
C        2.12770000       0.02440000       1.26830000
C        0.73570000      -0.65370000       1.22380000
C        0.99300000      -1.74210000       0.20090000
N        0.89950000      -2.99940000       0.25110000
O        1.13790000      -3.57930000      -1.02070000
H        0.77150000       2.13530000       0.19950000
H       -0.51910000       1.91240000      -0.98440000
H       -0.89050000       1.89140000       0.74270000
H       -0.91910000      -0.41740000      -0.19500000
H        1.09600000      -0.79730000      -1.88800000
H        3.35170000      -0.53710000      -0.50770000
H        2.59890000       1.05350000      -0.65860000
H        2.84560000      -0.56630000       1.84200000
H        2.08900000       1.02440000       1.70790000
H        0.22380000      -0.84770000       2.16460000
H        1.03060000      -4.51740000      -0.83110000
