14
Properties=species:S:1:pos:R:3 gdb_48127=T pbc="F F F"
O       -0.03230000      -0.03290000       0.00250000
C       -0.01440000       1.16590000       0.00860000
C        1.33150000       1.92640000      -0.00270000
O        2.40470000       1.37620000      -0.01760000
N        1.22230000       3.30940000       0.00590000
C        2.30810000       4.30960000      -0.00060000
C        1.21660000       5.41520000       0.01820000
C        0.18870000       4.27440000       0.02360000
O       -1.00230000       4.16590000       0.03670000
H       -0.92460000       1.79390000       0.02230000
H        2.94330000       4.24910000       0.88480000
H        2.92290000       4.25940000      -0.90100000
H        1.18600000       6.03880000       0.91300000
H        1.16550000       6.04900000      -0.86850000
