16
Properties=species:S:1:pos:R:3 gdb_78645=T pbc="F F F"
C        0.03620000       1.49440000       0.02650000
C       -0.10830000       0.00750000       0.01430000
C       -0.02360000      -0.86580000       1.23020000
C       -0.55470000      -2.25180000       0.92430000
O       -1.94260000      -2.42390000       0.99960000
C        0.12660000      -2.04920000      -0.45180000
N        1.06200000      -0.97650000       0.20900000
C       -0.61990000      -0.87480000      -1.08330000
O       -1.14170000      -0.67120000      -2.14100000
H        0.75660000       1.80930000       0.78660000
H        0.37780000       1.85490000      -0.94770000
H       -0.92580000       1.96770000       0.24760000
H        0.16080000      -0.42450000       2.20410000
H       -0.00740000      -2.99490000       1.51900000
H       -2.15150000      -3.35560000       0.87810000
H        0.54620000      -2.85780000      -1.04470000
