16
Properties=species:S:1:pos:R:3 gdb_44667=T pbc="F F F"
O       -0.00960000       0.00430000       0.15360000
C       -0.00090000       1.20820000       0.03130000
N       -1.12370000       2.01730000      -0.08690000
C       -0.79930000       3.43690000       0.16020000
C       -0.74120000       3.64450000       1.67070000
C        0.49990000       3.42220000       2.11370000
C        1.44540000       3.23440000       0.97830000
C        0.68710000       3.51630000      -0.28090000
C        1.19260000       2.11860000      -0.08560000
H       -1.99140000       1.63260000       0.26250000
H       -1.47860000       4.08990000      -0.38970000
H       -1.62930000       3.75630000       2.28170000
H        0.80380000       3.35850000       3.15160000
H        2.48600000       3.51910000       1.08240000
H        1.01620000       4.18460000      -1.06570000
H        2.06730000       1.72850000      -0.59010000
