22
Properties=species:S:1:pos:R:3 gdb_105686=T pbc="F F F"
C        1.70550000       0.46050000      -0.93270000
C        0.44990000       0.27790000      -0.07010000
C        0.65310000      -0.61020000       1.15020000
C        1.68910000      -0.14260000       2.16170000
N        1.37740000       1.15190000       2.75330000
C        2.09600000       2.27890000       2.51050000
O        3.08610000       2.34840000       1.81060000
C       -0.55200000      -1.34340000       1.69850000
C        0.52970000      -2.10350000       0.96860000
H        2.11750000      -0.50730000      -1.23870000
H        1.46880000       1.02510000      -1.83990000
H        2.48200000       1.01140000      -0.39440000
H        0.08590000       1.26100000       0.25510000
H       -0.35380000      -0.15570000      -0.67770000
H        1.78190000      -0.88890000       2.96020000
H        2.67190000      -0.03250000       1.69860000
H        0.54080000       1.23650000       3.30930000
H        1.67510000       3.15550000       3.04230000
H       -0.63200000      -1.48500000       2.77230000
H       -1.50520000      -1.20360000       1.19990000
H        0.31070000      -2.47590000      -0.02640000
H        1.17700000      -2.75330000       1.54880000
