16
Properties=species:S:1:pos:R:3 gdb_30886=T pbc="F F F"
C        0.27240000       1.02140000      -0.39260000
O       -0.20440000       0.19590000       0.67650000
C       -1.30380000      -0.54400000       0.37250000
C       -1.40680000      -1.85550000       0.00030000
O       -0.39080000      -2.74440000      -0.20200000
C       -2.79480000      -2.16620000      -0.17270000
C       -3.47990000      -1.00950000       0.10800000
O       -4.80320000      -0.70570000       0.14150000
N       -2.59920000      -0.01160000       0.41050000
H        1.17280000       1.52050000      -0.02710000
H        0.51340000       0.41910000      -1.27650000
H       -0.47260000       1.77620000      -0.67240000
H        0.42030000      -2.32720000       0.10960000
H       -3.20760000      -3.11360000      -0.47990000
H       -5.29970000      -1.51060000      -0.03450000
H       -2.85590000       0.84550000       0.86990000
