16
Properties=species:S:1:pos:R:3 gdb_71337=T pbc="F F F"
O       -0.22270000       1.22330000      -0.29360000
C        0.00150000      -0.10930000      -0.06150000
C        0.77900000      -0.81970000       1.07150000
C        0.15390000      -1.96990000       0.25290000
C       -1.15260000      -1.16360000      -0.04020000
N       -1.05770000      -1.44990000      -1.50040000
C       -1.69020000      -0.77930000      -2.51560000
O       -1.16370000      -0.44860000      -3.55580000
C        0.36140000      -1.24390000      -1.11230000
H        0.58010000       1.62820000      -0.64050000
H        1.86960000      -0.74290000       1.04670000
H        0.40050000      -0.67850000       2.08710000
H        0.21130000      -3.04310000       0.41040000
H       -2.08770000      -1.14610000       0.51760000
H       -2.77310000      -0.64940000      -2.31250000
H        1.19270000      -1.31000000      -1.81020000
