14
Properties=species:S:1:pos:R:3 gdb_26020=T pbc="F F F"
N       -0.01910000       1.26470000       0.35100000
C       -0.44140000       0.09830000      -0.21290000
O       -0.96370000      -0.00980000      -1.29570000
O       -0.20280000      -0.91970000       0.66280000
C       -0.57660000      -2.20010000       0.35150000
C       -1.21830000      -2.72180000      -0.74360000
N       -1.30600000      -4.07150000      -0.45590000
C       -0.73040000      -4.27750000       0.75610000
N       -0.27620000      -3.15610000       1.27370000
H        0.03480000       2.06470000      -0.25440000
H        0.56890000       1.23320000       1.16590000
H       -1.59520000      -2.28190000      -1.64520000
H       -1.72420000      -4.76880000      -1.04810000
H       -0.66740000      -5.25250000       1.21410000
