23
Properties=species:S:1:pos:R:3 gdb_76187=T pbc="F F F"
C       -1.73570000       0.95220000      -0.53920000
C       -0.80070000      -0.22150000      -0.34120000
C        0.33190000      -0.59100000      -1.25310000
C        0.55170000      -2.06280000      -1.57970000
C        0.69870000       0.29410000      -2.43410000
C        0.64300000      -0.05690000       0.17070000
C        1.27540000       1.30750000       0.37820000
C        1.05090000      -1.03940000       1.20980000
O        1.85920000      -0.81400000       2.07990000
H       -1.25140000       1.81380000      -1.00220000
H       -2.57340000       0.66280000      -1.18340000
H       -2.15320000       1.28220000       0.41790000
H       -1.30790000      -1.08220000       0.09400000
H        0.02750000      -2.31520000      -2.50890000
H        1.61440000      -2.28330000      -1.73240000
H        0.17770000      -2.73440000      -0.80490000
H        0.52510000       1.35600000      -2.26120000
H        1.75600000       0.16920000      -2.69320000
H        0.11040000       0.00160000      -3.31170000
H        0.83730000       2.08040000      -0.25280000
H        1.16060000       1.61310000       1.42160000
H        2.35000000       1.27140000       0.17500000
H        0.53680000      -2.02460000       1.16570000
