17
Properties=species:S:1:pos:R:3 gdb_17307=T pbc="F F F"
C       -0.01750000       1.52290000       0.00290000
C       -0.01500000       0.02160000       0.01150000
C       -0.90040000      -0.84170000       0.87760000
O       -1.80720000      -1.81460000       0.49660000
C        0.59860000      -0.97200000       1.04740000
C        1.30750000      -1.69600000      -0.12050000
N        0.28580000      -2.20640000      -1.08500000
C        0.71630000      -0.77710000      -1.10720000
H        0.98550000       1.93090000      -0.17450000
H       -0.67790000       1.91370000      -0.78160000
H       -0.37140000       1.91820000       0.96030000
H       -1.32450000      -0.25260000       1.69070000
H       -1.35730000      -2.30260000      -0.21570000
H        1.10870000      -0.74610000       1.97690000
H        2.29090000      -2.14530000      -0.07970000
H        0.78310000      -2.68720000      -1.83340000
H        1.13290000      -0.34240000      -2.00700000
