15
Properties=species:S:1:pos:R:3 gdb_8344=T pbc="F F F"
N        0.04770000      -1.17260000       0.10370000
C        0.06010000      -0.01830000       0.14040000
C        0.07850000       1.44340000       0.16700000
C        1.46440000       2.01380000      -0.02880000
C        2.55960000       1.66050000      -1.06820000
C        3.15040000       2.59740000       0.01080000
C        1.89840000       3.50170000      -0.08280000
O        2.45540000       1.79460000       1.04860000
H       -0.58310000       1.82160000      -0.62060000
H       -0.32010000       1.79370000       1.12560000
H        2.91010000       0.62920000      -1.03180000
H        2.44910000       2.04670000      -2.08440000
H        4.18690000       2.86960000       0.20060000
H        1.72770000       4.05650000      -1.00880000
H        1.67730000       4.08000000       0.81510000
