19
Properties=species:S:1:pos:R:3 gdb_82775=T pbc="F F F"
C       -0.12080000       1.62000000      -0.06160000
C        0.02570000       0.10870000      -0.02780000
C        0.54840000      -0.66170000      -1.23000000
C        1.27880000      -1.61670000      -0.27740000
C        2.56770000      -1.33410000      -1.06170000
C        2.86310000       0.04820000      -0.66750000
C        2.34150000       0.26670000       0.74030000
N        1.11640000      -0.54280000       0.81930000
N        1.89360000      -0.18900000      -1.79040000
H        0.72380000       2.11480000      -0.54750000
H       -1.02260000       1.87830000      -0.62660000
H       -0.23440000       2.02940000       0.94790000
H       -0.92340000      -0.33380000       0.30120000
H       -0.09480000      -0.96610000      -2.05800000
H        0.96990000      -2.61880000       0.01240000
H        3.23030000      -2.03980000      -1.54910000
H        3.76750000       0.53980000      -1.01330000
H        3.08610000      -0.09590000       1.46190000
H        2.12680000       1.30730000       0.99200000
