11
Properties=species:S:1:pos:R:3 gdb_131977=T pbc="F F F"
N        0.04120000       1.38780000       0.10970000
C       -0.03410000       0.04830000       0.03630000
C       -1.11400000      -0.79860000       0.01690000
O       -0.67210000      -2.06860000      -0.01980000
N        0.71480000      -1.98840000      -0.02920000
N        1.07540000      -0.77250000       0.00360000
N       -2.49140000      -0.50130000       0.01040000
O       -2.76250000       0.70950000       0.02780000
O       -3.29890000      -1.41730000      -0.01370000
H        0.92300000       1.83090000      -0.08470000
H       -0.81770000       1.90030000      -0.01540000
