17
Properties=species:S:1:pos:R:3 gdb_74696=T pbc="F F F"
C       -0.05370000       1.47580000       0.04170000
C       -0.00960000      -0.02070000      -0.02820000
C       -0.05620000      -0.72120000      -1.16840000
C        0.05820000      -2.22700000      -1.06740000
O        1.07640000      -2.55900000      -0.07370000
C        0.12690000      -2.29080000       0.99830000
C        0.10420000      -0.78220000       1.28530000
C       -0.97750000      -2.67090000      -0.01370000
O       -2.05210000      -3.18250000       0.01670000
H        0.84960000       1.87150000       0.52410000
H       -0.13560000       1.92480000      -0.95130000
H       -0.90360000       1.81840000       0.64570000
H       -0.17690000      -0.24910000      -2.13770000
H        0.18460000      -2.76050000      -2.00970000
H        0.28840000      -2.91650000       1.87920000
H        1.00850000      -0.47990000       1.83100000
H       -0.74680000      -0.54350000       1.93820000
