20
Properties=species:S:1:pos:R:3 gdb_89012=T pbc="F F F"
C       -0.19240000       1.45090000      -0.35160000
C       -0.10290000       0.05070000       0.23930000
O        0.49580000      -0.17110000       1.27690000
N       -0.73640000      -0.92260000      -0.48030000
C       -0.81090000      -2.30860000      -0.04330000
C       -2.23220000      -2.73870000       0.25320000
C       -3.16210000      -3.14210000      -0.88170000
C       -2.64560000      -4.17130000       0.09360000
O       -1.65700000      -5.07170000      -0.31700000
H        0.81970000       1.84640000      -0.46830000
H       -0.70570000       1.49390000      -1.31610000
H       -0.71500000       2.09860000       0.35770000
H       -1.25830000      -0.65800000      -1.29940000
H       -0.37410000      -2.96980000      -0.79790000
H       -0.19170000      -2.37210000       0.85430000
H       -2.69220000      -2.20380000       1.07920000
H       -4.20630000      -2.85140000      -0.84340000
H       -2.73370000      -3.17640000      -1.87920000
H       -3.34690000      -4.57050000       0.82610000
H       -2.06740000      -5.71770000      -0.90100000
