11
Properties=species:S:1:pos:R:3 gdb_130915=T pbc="F F F"
O       -0.08380000       0.03210000      -0.00090000
C       -0.00260000       1.23190000       0.00750000
C        1.27950000       1.98200000      -0.00060000
N        2.45730000       1.40920000      -0.01810000
O        3.35900000       2.41760000      -0.02010000
N        2.76390000       3.64710000      -0.00390000
C        1.47150000       3.40460000       0.00850000
C        0.48990000       4.42030000       0.02720000
C       -0.37310000       5.25690000       0.04320000
H       -0.89540000       1.88870000       0.02230000
H       -1.12700000       6.00630000       0.05720000
