20
Properties=species:S:1:pos:R:3 gdb_56187=T pbc="F F F"
C        0.18240000       1.39490000      -0.15040000
C       -0.01530000      -0.08290000       0.07180000
N       -0.18800000      -0.70850000       1.16290000
O        0.01150000      -0.73640000      -1.10950000
C       -0.15560000      -2.15970000      -1.06320000
C       -0.08930000      -2.66400000      -2.48830000
C        1.30390000      -2.64960000      -3.15440000
O        1.34950000      -4.09180000      -3.19780000
C        0.02510000      -4.19760000      -2.63960000
H        1.14290000       1.57670000      -0.64220000
H       -0.59760000       1.78450000      -0.81160000
H        0.15590000       1.93970000       0.79450000
H       -0.18120000      -0.06400000       1.95000000
H        0.63430000      -2.59950000      -0.44310000
H       -1.11310000      -2.40100000      -0.58810000
H       -0.87920000      -2.20370000      -3.08560000
H        1.34510000      -2.20810000      -4.15770000
H        2.11320000      -2.22730000      -2.54590000
H        0.01610000      -4.77090000      -1.70300000
H       -0.68300000      -4.65600000      -3.34110000
