17
Properties=species:S:1:pos:R:3 gdb_31351=T pbc="F F F"
C       -0.01570000       1.54100000       0.15430000
C       -0.00900000       0.02780000      -0.04900000
C        0.69240000      -0.41600000      -1.30790000
N        1.22830000       0.40970000      -2.12260000
C        1.86760000      -0.08180000      -3.28230000
N        2.39580000       0.75450000      -4.08580000
N        1.90580000      -1.48490000      -3.52220000
C        1.34830000      -2.24590000      -2.66270000
N        0.72030000      -1.78740000      -1.52970000
H        1.00260000       1.93160000       0.20570000
H       -0.51320000       2.04350000      -0.67770000
H       -0.53770000       1.79230000       1.08160000
H        0.47270000      -0.47440000       0.80220000
H       -1.03640000      -0.36280000      -0.07790000
H        2.80830000       0.23090000      -4.85940000
H        1.34730000      -3.32690000      -2.79600000
H        0.29360000      -2.42680000      -0.87930000
