17
Properties=species:S:1:pos:R:3 gdb_2532=T pbc="F F F"
C        0.18200000       1.54430000       0.03080000
C        0.01590000       0.02380000      -0.04450000
C       -1.45690000      -0.43660000       0.00550000
N       -2.18680000      -0.02170000      -1.18810000
C       -3.62700000      -0.25310000      -1.11970000
C       -1.51000000      -1.90630000       0.12360000
N       -1.54400000      -3.05530000       0.23940000
H        1.24270000       1.80620000       0.08010000
H       -0.22980000       2.05520000      -0.84580000
H       -0.30370000       1.95560000       0.92260000
H        0.46400000      -0.36710000      -0.96360000
H        0.54210000      -0.44280000       0.79400000
H       -1.90990000      -0.04060000       0.93680000
H       -2.00800000       0.96360000      -1.34150000
H       -4.11400000       0.20880000      -0.24300000
H       -4.09580000       0.14330000      -2.02400000
H       -3.82320000      -1.32900000      -1.08400000
