18
Properties=species:S:1:pos:R:3 gdb_113296=T pbc="F F F"
C        0.03710000       1.44420000      -0.17850000
C        0.04420000      -0.01550000       0.26840000
N       -1.30370000      -0.57580000       0.09430000
C       -1.64390000      -1.20120000      -1.14310000
C       -1.51060000      -2.04900000       0.11130000
C       -0.36930000      -3.01870000       0.16660000
O        0.66710000      -2.89270000      -0.44390000
C       -2.76140000      -2.44560000       0.82730000
O       -2.97040000      -3.54900000       1.26610000
H        1.01950000       1.89370000      -0.00750000
H       -0.18910000       1.52760000      -1.24650000
H       -0.71140000       2.01880000       0.37390000
H        0.80380000      -0.58580000      -0.27810000
H        0.28340000      -0.08210000       1.33520000
H       -2.63950000      -1.00710000      -1.53610000
H       -0.86000000      -1.37460000      -1.87950000
H       -0.55250000      -3.88160000       0.83370000
H       -3.49380000      -1.61530000       0.92450000
