23
Properties=species:S:1:pos:R:3 gdb_101699=T pbc="F F F"
C        0.10980000       1.52350000      -0.17410000
C        0.02210000      -0.00320000      -0.12090000
C       -1.38970000      -0.51880000       0.16990000
O       -2.32660000      -0.07640000      -0.82540000
C       -1.43450000      -2.04610000       0.35840000
C       -2.84800000      -2.60420000       0.25210000
O       -3.82700000      -1.83040000       0.89040000
C       -3.27080000      -3.34870000      -0.99650000
C       -3.07600000      -4.08030000       0.31910000
H        1.11830000       1.85440000      -0.43910000
H       -0.59020000       1.92230000      -0.91300000
H       -0.14310000       1.96580000       0.79580000
H        0.36060000      -0.43350000      -1.07480000
H        0.70140000      -0.39660000       0.64630000
H       -1.75740000      -0.04920000       1.08930000
H       -2.14200000      -0.55580000      -1.64110000
H       -0.79300000      -2.53720000      -0.38520000
H       -1.00790000      -2.27750000       1.34260000
H       -3.88030000      -1.01370000       0.37400000
H       -4.29090000      -3.19970000      -1.33210000
H       -2.54670000      -3.51390000      -1.78860000
H       -2.21670000      -4.73380000       0.42660000
H       -3.96710000      -4.40740000       0.84200000
