20
Properties=species:S:1:pos:R:3 gdb_81048=T pbc="F F F"
C       -0.53850000       1.37140000      -0.27730000
C       -0.05040000      -0.05330000      -0.07230000
C        1.29890000      -0.57790000      -0.66870000
C        2.05950000       0.22170000       0.42900000
C        0.84120000      -0.44030000       1.15040000
C        1.20230000      -1.74160000       0.35820000
C        0.40810000      -0.36210000       2.58980000
N        1.42170000      -0.21500000       3.49230000
O       -0.76240000      -0.43160000       2.91700000
H        0.24810000       2.12360000      -0.17500000
H       -0.97360000       1.48370000      -1.27640000
H       -1.32010000       1.60330000       0.45330000
H       -0.88180000      -0.75080000      -0.21680000
H        1.56910000      -0.65650000      -1.72250000
H        3.05100000      -0.16000000       0.69360000
H        2.07110000       1.30980000       0.35710000
H        0.39140000      -2.46090000       0.22170000
H        2.13970000      -2.23230000       0.63430000
H        2.38540000      -0.18550000       3.21140000
H        1.19630000      -0.20720000       4.47350000
