19
Properties=species:S:1:pos:R:3 gdb_126760=T pbc="F F F"
C       -0.16870000       1.53090000      -0.06280000
C        0.05190000       0.01700000      -0.03570000
N        0.76910000      -0.47050000      -1.19700000
N        0.12840000      -0.64490000      -2.39860000
C        1.09180000      -1.10680000      -3.17520000
C        0.86270000      -1.46500000      -4.60490000
N        2.31360000      -1.22520000      -2.56810000
C        2.06850000      -0.81350000      -1.33680000
N        2.97950000      -0.80530000      -0.29120000
H        0.78270000       2.07270000      -0.05880000
H       -0.71790000       1.81280000      -0.96450000
H       -0.74620000       1.84630000       0.81150000
H        0.61960000      -0.28760000       0.84920000
H       -0.90840000      -0.50550000      -0.00610000
H        1.51180000      -0.87670000      -5.26160000
H        1.09530000      -2.52010000      -4.78200000
H       -0.17810000      -1.28070000      -4.87630000
H        3.90620000      -1.02070000      -0.63460000
H        2.98920000       0.04680000       0.25360000
