17
Properties=species:S:1:pos:R:3 gdb_11430=T pbc="F F F"
C       -0.41740000       0.98770000      -0.08490000
O        0.15020000      -0.29640000       0.04480000
C        0.95010000      -0.46460000       1.19820000
C        0.11160000      -0.73430000       2.46280000
O       -0.12820000      -2.14660000       2.47960000
C        0.77680000      -2.79940000       1.68510000
N        0.82150000      -4.04940000       1.52510000
C        1.70530000      -1.78610000       1.05260000
H        0.35740000       1.76990000      -0.11080000
H       -0.96650000       1.00120000      -1.02890000
H       -1.11890000       1.22600000       0.72850000
H        1.61210000       0.40250000       1.33170000
H        0.65520000      -0.44450000       3.37140000
H       -0.85510000      -0.22560000       2.45270000
H        0.09330000      -4.50670000       2.07660000
H        1.92490000      -2.02800000       0.01360000
H        2.64720000      -1.75960000       1.61050000
