17
Properties=species:S:1:pos:R:3 gdb_18901=T pbc="F F F"
C        0.03420000       1.57350000      -0.02470000
C        0.02040000       0.07570000      -0.04760000
C        0.55130000      -0.90440000      -1.13240000
C        0.85200000      -1.87100000      -0.05160000
C        0.60650000      -0.86950000       1.09210000
C       -0.82980000      -1.15740000       1.59180000
C       -1.21270000      -0.87320000       0.13160000
N       -0.49010000      -1.90030000      -0.73200000
H        1.05770000       1.96300000      -0.07340000
H       -0.52110000       1.98900000      -0.87370000
H       -0.42410000       1.95850000       0.89350000
H        0.91390000      -0.79750000      -2.14850000
H        1.43900000      -2.78090000      -0.06090000
H        1.43190000      -0.58940000       1.74450000
H       -1.05690000      -2.14220000       2.00890000
H       -1.19390000      -0.37070000       2.25990000
H       -2.22920000      -0.67240000      -0.20570000
