20
Properties=species:S:1:pos:R:3 gdb_53648=T pbc="F F F"
C       -0.02590000       1.52680000      -0.05340000
C       -0.00170000       0.07100000      -0.04510000
C        0.02830000      -1.13260000      -0.04030000
C        0.02800000      -2.59090000      -0.02850000
C       -1.39040000      -3.17220000       0.14330000
C       -1.42710000      -4.71760000       0.07170000
C       -0.68430000      -5.41190000       1.23110000
C       -2.82100000      -5.17350000       0.02660000
N       -3.92140000      -5.52670000       0.00150000
H        0.58040000       1.94060000       0.75990000
H        0.36620000       1.92640000      -0.99520000
H       -1.04600000       1.90770000       0.06780000
H        0.46260000      -2.96980000      -0.96420000
H        0.68210000      -2.94850000       0.77610000
H       -1.80980000      -2.84320000       1.09990000
H       -2.03580000      -2.76330000      -0.63940000
H       -0.96450000      -5.02870000      -0.87490000
H       -0.77410000      -6.49810000       1.15440000
H        0.37790000      -5.15760000       1.21270000
H       -1.09900000      -5.10240000       2.19480000
