12
Properties=species:S:1:pos:R:3 gdb_132473=T pbc="F F F"
O        0.02850000       1.34310000      -0.06030000
C       -0.07110000       0.01550000       0.05090000
C       -1.19230000      -0.70070000      -0.16090000
N       -1.17390000      -2.07570000      -0.01460000
C       -0.08770000      -2.63980000       0.32030000
F       -0.04400000      -3.95230000       0.46580000
C        1.18520000      -1.95810000       0.57410000
N        2.26040000      -2.52860000       0.90630000
O        1.09550000      -0.57260000       0.40860000
H        0.93590000       1.60260000       0.14410000
H       -2.11900000      -0.22540000      -0.44580000
H        3.01960000      -1.85880000       1.03060000
