21
Properties=species:S:1:pos:R:3 gdb_114032=T pbc="F F F"
C       -0.04460000       1.53430000       0.09570000
C        0.00370000       0.03460000       0.01860000
C       -1.24530000      -0.85840000      -0.08650000
C       -0.62000000      -1.85200000       0.94770000
C       -0.55200000      -3.33780000       0.61340000
O       -1.83060000      -3.95770000       0.68380000
C        0.66680000      -1.01540000       0.96490000
C        1.20150000      -0.73110000      -0.41440000
O        1.12290000      -1.61650000      -1.50040000
H        0.93920000       1.95580000       0.32610000
H       -0.37490000       1.96560000      -0.85750000
H       -0.74330000       1.87130000       0.87000000
H       -2.14860000      -0.36950000       0.28500000
H       -1.43940000      -1.25660000      -1.08730000
H       -1.14080000      -1.75140000       1.90510000
H       -0.09370000      -3.48410000      -0.37340000
H        0.06960000      -3.85640000       1.35300000
H       -2.37490000      -3.57200000      -0.01020000
H        1.28310000      -0.85130000       1.84350000
H        2.11920000      -0.13990000      -0.39800000
H        1.77940000      -2.30850000      -1.36700000
