23
Properties=species:S:1:pos:R:3 gdb_101844=T pbc="F F F"
C        0.40510000       1.23270000      -1.39950000
C        0.14520000      -0.22560000      -1.01570000
C        1.42590000      -1.04940000      -0.86970000
O        2.27920000      -0.54720000       0.15690000
C        1.13940000      -2.53530000      -0.59910000
O        0.37790000      -3.17820000      -1.60950000
C        1.12580000      -3.64950000      -2.68970000
C        0.35950000      -4.02260000      -3.91520000
C        1.28230000      -2.81830000      -3.93990000
H        1.07400000       1.70990000      -0.67770000
H        0.88020000       1.30120000      -2.38450000
H       -0.52560000       1.80650000      -1.43790000
H       -0.40450000      -0.27160000      -0.06270000
H       -0.49750000      -0.71530000      -1.75540000
H        2.01960000      -0.96510000      -1.78730000
H        1.76850000      -0.52370000       0.97440000
H        2.09430000      -3.05460000      -0.43560000
H        0.54910000      -2.62380000       0.32310000
H        1.96550000      -4.28130000      -2.39760000
H        0.64480000      -4.91860000      -4.45460000
H       -0.70600000      -3.82420000      -3.89360000
H        0.81040000      -1.84270000      -3.95060000
H        2.21340000      -2.88040000      -4.49310000
