19
Properties=species:S:1:pos:R:3 gdb_2206=T pbc="F F F"
C       -0.04650000       1.57420000      -0.07470000
C        0.06700000       0.05910000       0.01140000
C        1.06940000      -0.67840000      -0.92080000
C        1.34380000      -1.66440000       0.24400000
O        2.66860000      -2.06280000       0.51590000
C        0.76590000      -0.62200000       1.23980000
C        1.82900000       0.21150000       1.95180000
H        0.92770000       2.06180000       0.03020000
H       -0.46310000       1.87570000      -1.04240000
H       -0.70490000       1.97200000       0.70590000
H       -0.92950000      -0.37990000      -0.11160000
H        0.69840000      -1.08060000      -1.86760000
H        1.95630000      -0.06720000      -1.11620000
H        0.67890000      -2.53810000       0.17440000
H        2.95670000      -2.65120000      -0.18880000
H        0.07870000      -1.03620000       1.98440000
H        2.55450000       0.64360000       1.25680000
H        1.36800000       1.03040000       2.51360000
H        2.38990000      -0.41120000       2.65410000
