22
Properties=species:S:1:pos:R:3 gdb_13411=T pbc="F F F"
C        0.01350000       1.38530000       0.03880000
O        0.01420000      -0.01960000       0.08390000
C       -1.28010000      -0.57560000      -0.01920000
C       -1.17580000      -2.09020000       0.04860000
C       -0.60910000      -2.63690000       1.37120000
C       -1.04470000      -4.10850000       1.35670000
C       -2.48710000      -4.06170000       0.80650000
C       -2.54610000      -2.80230000      -0.10720000
H        1.05120000       1.71850000       0.12120000
H       -0.40680000       1.76520000      -0.90660000
H       -0.56620000       1.82270000       0.86780000
H       -1.92250000      -0.20580000       0.80130000
H       -1.75570000      -0.26130000      -0.96530000
H       -0.51100000      -2.41050000      -0.76370000
H        0.47040000      -2.49540000       1.45890000
H       -1.07770000      -2.11460000       2.21720000
H       -0.39820000      -4.67490000       0.67490000
H       -0.97920000      -4.59120000       2.33620000
H       -2.75760000      -4.97670000       0.27230000
H       -3.19880000      -3.96000000       1.63240000
H       -3.35940000      -2.13840000       0.20810000
H       -2.74390000      -3.05830000      -1.15190000
