18
Properties=species:S:1:pos:R:3 gdb_97981=T pbc="F F F"
C        0.10240000       0.38830000       0.81710000
N       -0.32210000      -0.17020000      -0.44940000
C       -1.27950000      -0.98280000      -0.43060000
O       -1.73630000      -1.52600000      -1.58340000
C       -2.80840000      -2.46290000      -1.44290000
C       -2.40560000      -3.73040000      -0.84450000
C       -2.06440000      -4.76650000      -0.33600000
C       -1.64240000      -6.03000000       0.25300000
O       -1.96440000      -6.04470000       1.63740000
H        1.15960000       0.15350000       0.98560000
H        0.02170000       1.48090000       0.78250000
H       -0.47410000       0.02620000       1.68420000
H       -1.81480000      -1.31130000       0.47320000
H       -3.62760000      -2.01710000      -0.86130000
H       -3.17830000      -2.61860000      -2.46010000
H       -2.13790000      -6.85550000      -0.28360000
H       -0.55910000      -6.15020000       0.09020000
H       -1.66080000      -6.88570000       1.99410000
