13
Properties=species:S:1:pos:R:3 gdb_132938=T pbc="F F F"
F        0.05970000       0.02110000      -0.18580000
C        0.01050000       1.34040000      -0.00420000
C       -1.14660000       1.98990000       0.11560000
O       -1.21760000       3.33810000       0.30200000
C       -0.06680000       4.10130000       0.37630000
N       -0.09680000       5.35150000       0.54980000
N        1.11730000       3.41030000       0.24820000
C        1.28780000       2.04530000       0.05770000
N        2.45860000       1.55230000      -0.04070000
H       -2.12030000       1.52050000       0.07750000
H       -1.05440000       5.68530000       0.62180000
H        1.95690000       3.96980000       0.30290000
H        2.39940000       0.54440000      -0.17670000
