17
Properties=species:S:1:pos:R:3 gdb_45644=T pbc="F F F"
O       -0.12000000      -0.02030000       0.25490000
C       -0.03610000       1.16770000       0.11880000
C       -1.22920000       2.18250000       0.12390000
C       -0.59430000       3.46000000       0.65670000
C        0.73000000       3.35800000       0.54790000
C        2.07080000       3.63380000       1.17940000
C        2.28050000       2.53220000       2.20240000
C        2.51890000       2.20990000       0.75830000
C        1.20210000       2.06350000      -0.04820000
H       -1.62730000       2.26640000      -0.89810000
H       -2.04700000       1.80770000       0.74810000
H       -1.16200000       4.23890000       1.15230000
H        2.63420000       4.55730000       1.20040000
H        3.18210000       2.62950000       2.79990000
H        1.43020000       2.12210000       2.73930000
H        3.48830000       1.89250000       0.39710000
H        1.41550000       2.15120000      -1.12270000
