19
Properties=species:S:1:pos:R:3 gdb_72272=T pbc="F F F"
O       -0.03340000       1.41300000      -0.00610000
C        0.00870000       0.02020000      -0.06010000
C        0.42290000      -0.74000000      -1.33310000
C       -0.48690000      -1.88170000      -0.79420000
O        0.22640000      -2.77940000       0.04260000
C        1.06910000      -2.06620000       0.94970000
C        0.41400000      -0.72850000       1.28490000
C       -1.09740000      -0.98410000       1.56000000
C       -1.29750000      -0.80990000       0.04920000
H        0.86460000       1.74210000       0.11230000
H       -0.02370000      -0.25850000      -2.20810000
H        1.47170000      -0.97470000      -1.53860000
H       -1.04130000      -2.48870000      -1.50920000
H        1.17880000      -2.69480000       1.84010000
H        2.06970000      -1.92110000       0.51480000
H        0.99300000      -0.14930000       2.00870000
H       -1.36190000      -1.94340000       2.01290000
H       -1.56280000      -0.16820000       2.11740000
H       -2.24420000      -0.48810000      -0.38690000
