17
Properties=species:S:1:pos:R:3 gdb_78842=T pbc="F F F"
O       -0.23380000       1.51910000      -0.18790000
C       -0.01050000       0.12750000      -0.18530000
C       -1.24190000      -0.74690000      -0.06390000
C       -1.79220000      -0.97180000      -1.47760000
C       -0.62680000      -1.78590000      -0.97950000
C        0.27630000      -0.61290000      -1.52770000
C       -0.89250000      -0.17270000      -2.44180000
C       -0.88240000      -0.79060000      -3.81310000
O       -0.04720000      -1.55840000      -4.22250000
H        0.61870000       1.96590000      -0.17810000
H        0.73300000      -0.16040000       0.57030000
H       -1.86350000      -0.90800000       0.80730000
H       -2.81610000      -1.28760000      -1.63100000
H       -0.47020000      -2.84580000      -0.85610000
H        1.27950000      -0.71200000      -1.93310000
H       -1.09460000       0.90300000      -2.51520000
H       -1.74480000      -0.49340000      -4.45500000
