18
Properties=species:S:1:pos:R:3 gdb_46295=T pbc="F F F"
N       -0.02980000       1.20430000      -0.19990000
C        0.02700000      -0.02690000       0.02740000
O        1.08010000      -0.82280000       0.42400000
C        0.22690000      -2.00790000       0.45990000
C       -0.99350000      -1.15820000      -0.00240000
C       -2.22270000      -1.00950000       0.92890000
C       -3.39690000      -1.71530000       0.20370000
C       -2.89940000      -1.83300000      -1.21480000
C       -1.60930000      -1.52430000      -1.32780000
H        0.87540000       1.65560000      -0.05730000
H        0.58150000      -2.76670000      -0.24220000
H        0.16910000      -2.41860000       1.47170000
H       -2.03600000      -1.40410000       1.93090000
H       -2.43750000       0.05780000       1.03140000
H       -3.61040000      -2.70750000       0.62440000
H       -4.32970000      -1.14560000       0.27830000
H       -3.53240000      -2.15920000      -2.03280000
H       -1.02550000      -1.55310000      -2.24090000
