20
Properties=species:S:1:pos:R:3 gdb_52739=T pbc="F F F"
C       -0.03930000       1.48140000       0.09390000
C       -0.02410000       0.02850000       0.00600000
C        0.01610000      -1.17300000      -0.06690000
C       -0.02120000      -2.63720000      -0.13710000
C       -1.49900000      -3.06150000       0.03940000
O       -2.09640000      -3.78360000      -0.71230000
N        0.68050000      -3.17990000      -1.28570000
C        0.90950000      -4.61540000      -1.21280000
C        0.20240000      -2.73600000      -2.58910000
H        0.87140000       1.91070000      -0.33740000
H       -0.89510000       1.90600000      -0.44170000
H       -0.10030000       1.81260000       1.13630000
H        0.48190000      -3.02740000       0.76500000
H       -1.97800000      -2.63460000       0.95130000
H        0.00110000      -5.22180000      -1.34880000
H        1.62860000      -4.89930000      -1.98860000
H        1.35220000      -4.86890000      -0.24280000
H        0.10240000      -1.64740000      -2.58700000
H        0.94680000      -3.00460000      -3.34650000
H       -0.76240000      -3.17730000      -2.87960000
