22
Properties=species:S:1:pos:R:3 gdb_73022=T pbc="F F F"
C       -0.04500000       1.56410000       0.02420000
C       -0.02130000       0.06180000       0.01790000
C       -0.78180000      -0.81270000      -0.99420000
C       -1.10700000      -1.83710000       0.13710000
C       -0.33670000      -0.96310000       1.13280000
C        1.07310000      -0.74260000       0.66020000
N        1.79210000      -1.76200000      -0.05500000
C        3.18060000      -1.46670000      -0.39290000
C        2.85130000      -2.44910000       0.67690000
H        0.49780000       1.97310000      -0.83760000
H       -1.07120000       1.94690000      -0.02270000
H        0.42040000       1.96940000       0.92910000
H       -1.67820000      -0.31520000      -1.37370000
H       -0.19450000      -1.18540000      -1.83720000
H       -2.17540000      -1.88550000       0.35890000
H       -0.72340000      -2.85070000      -0.00180000
H       -0.61270000      -0.79260000       2.16810000
H        1.67230000      -0.15450000       1.36490000
H        3.51410000      -1.80330000      -1.37060000
H        3.58710000      -0.50640000      -0.07910000
H        3.03690000      -2.14630000       1.70640000
H        2.93900000      -3.51660000       0.49470000
