19
Properties=species:S:1:pos:R:3 gdb_91461=T pbc="F F F"
C       -0.06210000       1.54760000       0.00450000
C        0.04310000       0.02950000       0.03900000
O        0.79860000      -0.45970000      -1.08090000
C        1.86700000      -1.28610000      -0.53240000
C        2.27400000      -0.48050000       0.70800000
C        0.82260000      -0.55840000       1.26630000
O        0.48940000       0.10610000       2.45170000
C        0.58230000      -2.06210000       1.18990000
C        1.22060000      -2.51060000       0.10470000
H        0.91990000       2.02380000       0.06740000
H       -0.53410000       1.86290000      -0.93060000
H       -0.67190000       1.89850000       0.84150000
H       -0.96570000      -0.40320000       0.00540000
H        2.59700000      -1.44960000      -1.32270000
H        2.99520000      -0.99110000       1.34880000
H        2.61140000       0.53130000       0.47440000
H        0.97420000      -0.30490000       3.17470000
H       -0.09960000      -2.59190000       1.84420000
H        1.18510000      -3.50020000      -0.33190000
