15
Properties=species:S:1:pos:R:3 gdb_11292=T pbc="F F F"
C       -0.07860000       1.43980000      -0.02060000
C        0.14690000      -0.05370000       0.09680000
C        0.73350000      -0.74470000      -1.15120000
O        1.69760000      -1.67230000      -0.63580000
C        1.67810000      -1.56080000       0.76620000
O        1.15920000      -0.30840000       1.08670000
C        0.84710000      -2.65720000       1.35760000
N        0.21140000      -3.50260000       1.82170000
H        0.85020000       1.94680000      -0.29740000
H       -0.83390000       1.64750000      -0.78460000
H       -0.43190000       1.85010000       0.92870000
H       -0.77930000      -0.56010000       0.40310000
H       -0.02670000      -1.27820000      -1.72960000
H        1.25320000      -0.03510000      -1.80460000
H        2.69740000      -1.63770000       1.15620000
