14
Properties=species:S:1:pos:R:3 gdb_124174=T pbc="F F F"
C       -0.04310000       1.43940000       0.04810000
C       -0.01640000      -0.01180000      -0.01000000
C        0.00740000      -1.21500000      -0.05780000
C        0.02810000      -2.63060000      -0.11180000
N        1.10210000      -3.28700000      -0.49620000
O        0.69020000      -4.63810000      -0.40060000
C       -0.57690000      -4.61120000       0.02840000
N       -1.19090000      -5.80020000       0.25180000
N       -1.05670000      -3.41540000       0.22580000
H        0.72460000       1.81940000       0.73090000
H        0.14330000       1.87590000      -0.93930000
H       -1.01520000       1.80160000       0.39870000
H       -0.81620000      -6.60260000      -0.22850000
H       -2.19460000      -5.75790000       0.32520000
