16
Properties=species:S:1:pos:R:3 gdb_30082=T pbc="F F F"
C        0.00880000       1.23500000       0.79280000
N        0.04720000      -0.13870000       0.33350000
C        0.42960000      -0.59240000      -0.89770000
N        0.37710000      -1.90050000      -0.99280000
C       -0.05560000      -2.33970000       0.23630000
C       -0.25380000      -1.26870000       1.06050000
O       -0.77570000      -1.21030000       2.32880000
C        0.05530000      -0.94160000       3.37050000
N        1.26120000      -0.60490000       3.23360000
H        0.16450000       1.89270000      -0.06410000
H       -0.96540000       1.46200000       1.23530000
H        0.78920000       1.41000000       1.53740000
H        0.73270000       0.09090000      -1.67780000
H       -0.20290000      -3.38420000       0.46030000
H       -0.51280000      -1.05850000       4.29650000
H        1.69590000      -0.45740000       4.14190000
