21
Properties=species:S:1:pos:R:3 gdb_68078=T pbc="F F F"
C       -0.08980000       1.52770000       0.03150000
C        0.06710000       0.02780000      -0.03010000
C        0.77990000      -0.65770000      -1.21730000
C       -0.34580000      -1.69760000      -1.02000000
C       -1.01970000      -2.35810000      -2.19800000
C        0.04420000      -2.65260000       0.11190000
O        0.86050000      -1.99050000       1.07200000
C        0.53040000      -0.62100000       1.27750000
O       -1.17290000      -0.66280000      -0.39390000
H        0.88000000       2.01270000       0.18300000
H       -0.52550000       1.89860000      -0.90010000
H       -0.75040000       1.81720000       0.85600000
H        0.65500000      -0.09550000      -2.14510000
H        1.81430000      -0.97960000      -1.08760000
H       -0.32730000      -3.03280000      -2.71200000
H       -1.88890000      -2.94070000      -1.87390000
H       -1.36300000      -1.60080000      -2.90790000
H       -0.87950000      -3.03700000       0.57180000
H        0.63530000      -3.49940000      -0.25460000
H        1.43750000      -0.14710000       1.66880000
H       -0.27550000      -0.51270000       2.02010000
