16
Properties=species:S:1:pos:R:3 gdb_50282=T pbc="F F F"
O       -0.09850000      -0.05590000      -0.44730000
C       -0.05040000       1.07660000      -0.03710000
C        1.21280000       1.90250000       0.00280000
C        1.22310000       3.24860000      -0.82410000
C        1.47990000       4.02180000       0.47190000
N        0.37170000       3.74820000       1.36860000
C        1.44900000       2.73440000       1.27820000
C        2.29640000       2.45980000       2.44630000
O        2.34320000       3.18980000       3.41260000
H       -0.95270000       1.60000000       0.34230000
H        2.06550000       1.26890000      -0.24900000
H        2.05310000       3.27670000      -1.53070000
H        0.29400000       3.51390000      -1.33420000
H        2.13400000       4.87120000       0.62660000
H        0.54210000       4.24270000       2.24710000
H        2.91710000       1.54200000       2.37780000
