23
Properties=species:S:1:pos:R:3 gdb_102637=T pbc="F F F"
C        0.07080000       1.44420000       0.73200000
C        0.06610000       0.04120000       0.13030000
O        0.94310000      -0.83100000       0.85960000
C       -1.35580000      -0.53790000       0.02500000
C       -1.44590000      -2.04130000      -0.30080000
C       -2.91410000      -2.47370000      -0.33860000
O       -2.96770000      -3.89280000      -0.35730000
C       -0.73910000      -2.45820000      -1.59890000
O        0.66720000      -2.26950000      -1.59360000
H        1.09090000       1.83340000       0.78500000
H       -0.53160000       2.13060000       0.12790000
H       -0.34890000       1.43880000       1.74610000
H        0.51120000       0.06920000      -0.86710000
H        0.59870000      -0.92760000       1.75470000
H       -1.87960000      -0.35770000       0.97620000
H       -1.90150000       0.04030000      -0.73340000
H       -0.98070000      -2.60210000       0.52170000
H       -3.43710000      -2.07210000       0.54440000
H       -3.40320000      -2.04460000      -1.22920000
H       -3.88150000      -4.15980000      -0.49100000
H       -0.98120000      -3.51150000      -1.79240000
H       -1.14550000      -1.87210000      -2.43760000
H        0.96090000      -2.19700000      -0.67600000
