21
Properties=species:S:1:pos:R:3 gdb_119016=T pbc="F F F"
C        0.81020000       1.27980000      -0.15920000
C        0.14740000      -0.07090000       0.12350000
C        0.98360000      -0.94930000       1.06570000
C        0.30140000      -2.24520000       1.46030000
C        0.03390000      -3.26560000       0.35120000
C        1.25180000      -3.75780000      -0.28210000
C        2.26600000      -4.15220000      -0.79260000
C        0.39110000      -2.73330000       2.84260000
O       -0.80180000      -2.09990000       2.36430000
H        1.79130000       1.15030000      -0.62960000
H        0.19750000       1.89020000      -0.82970000
H        0.95960000       1.84820000       0.76550000
H       -0.84060000       0.08610000       0.57240000
H       -0.01970000      -0.59450000      -0.82560000
H        1.94760000      -1.18670000       0.59920000
H        1.20040000      -0.38670000       1.98090000
H       -0.53270000      -4.09830000       0.78210000
H       -0.61790000      -2.81120000      -0.40520000
H        3.15690000      -4.50800000      -1.24770000
H        0.30340000      -3.79930000       3.04960000
H        0.95780000      -2.16450000       3.57830000
