14
Properties=species:S:1:pos:R:3 gdb_49046=T pbc="F F F"
N        0.17090000       1.08930000      -0.62270000
C        0.06070000      -0.05840000      -0.14620000
O        1.00600000      -0.95150000       0.34220000
C       -0.00390000      -1.96230000       0.60600000
C       -0.65100000      -1.81300000       1.98710000
O       -1.62730000      -0.86630000       1.47130000
C       -1.11600000      -0.99510000       0.13090000
C       -2.17060000      -1.23880000      -0.91490000
O       -1.91250000      -1.61870000      -2.02580000
H        1.13990000       1.41220000      -0.63300000
H        0.25090000      -2.92980000       0.18130000
H       -1.14310000      -2.71600000       2.36430000
H       -0.00570000      -1.37870000       2.75600000
H       -3.20680000      -1.05570000      -0.55940000
