15
Properties=species:S:1:pos:R:3 gdb_34543=T pbc="F F F"
N        0.00790000      -1.09140000      -0.14690000
C       -0.04420000       0.05480000      -0.00990000
C       -0.10380000       1.48750000       0.17150000
N       -1.08270000       2.14430000      -0.29660000
C       -1.12420000       3.54750000      -0.04030000
C       -1.10830000       4.02630000       1.40550000
C        0.09890000       4.22210000       0.53610000
C        1.30710000       3.32960000       0.69140000
O        0.95570000       1.94220000       0.88500000
H       -1.75520000       4.08710000      -0.73610000
H       -1.71240000       4.89230000       1.65040000
H       -1.07650000       3.26130000       2.17370000
H        0.33100000       5.22800000       0.19970000
H        1.93930000       3.39780000      -0.20290000
H        1.91210000       3.58780000       1.56410000
