25
Properties=species:S:1:pos:R:3 gdb_122529=T pbc="F F F"
C       -0.40930000       1.47240000       0.39700000
C        0.03180000       0.06090000       0.04680000
O        0.64760000      -0.51230000       1.17980000
C        1.10960000      -1.83020000       0.95660000
C        1.80350000      -2.30860000       2.20420000
C        1.02020000      -2.92800000       3.33650000
C        1.97980000      -3.77430000       2.53440000
C        1.48740000      -4.90770000       1.65450000
C        1.33150000      -6.22000000       2.43260000
H        0.45090000       2.07940000       0.69350000
H       -0.89120000       1.94760000      -0.46280000
H       -1.11890000       1.45660000       1.22910000
H       -0.83430000      -0.54750000      -0.26740000
H        0.73490000       0.07550000      -0.80430000
H        0.26530000      -2.48840000       0.69430000
H        1.80440000      -1.84420000       0.09810000
H        2.62730000      -1.66170000       2.49360000
H        1.27120000      -2.65780000       4.35620000
H       -0.04140000      -3.08730000       3.16930000
H        2.91920000      -4.00540000       3.03330000
H        0.52590000      -4.64290000       1.20060000
H        2.18730000      -5.06000000       0.82190000
H        0.98420000      -7.02910000       1.78230000
H        2.28460000      -6.53240000       2.87350000
H        0.61080000      -6.10850000       3.24940000
