11
Properties=species:S:1:pos:R:3 gdb_20775=T pbc="F F F"
C       -0.03580000       1.48750000       0.06050000
C       -0.01290000      -0.00160000       0.03280000
N       -0.03480000      -0.70140000      -1.06830000
O       -0.00230000      -2.01960000      -0.68600000
N        0.04020000      -2.15380000       0.65670000
C        0.03470000      -0.92820000       1.12630000
C        0.07190000      -0.63520000       2.51530000
N        0.10060000      -0.33510000       3.63160000
H        0.85600000       1.87800000       0.56000000
H       -0.07310000       1.87900000      -0.95680000
H       -0.90750000       1.84980000       0.61390000
