14
Properties=species:S:1:pos:R:3 gdb_130030=T pbc="F F F"
N        0.14110000       1.32390000      -0.21220000
C        0.01760000      -0.04160000      -0.08860000
N       -1.10590000      -0.71970000       0.06140000
C       -0.66320000      -2.00080000       0.21720000
N        0.64070000      -2.17170000       0.16580000
N        1.08210000      -0.88330000      -0.02660000
C        2.49670000      -0.59520000      -0.04210000
C        2.90240000       0.13940000      -1.24840000
N        3.18210000       0.76240000      -2.18010000
H        0.82220000       1.64110000      -0.89100000
H       -0.75950000       1.76290000      -0.34760000
H       -1.33320000      -2.83480000       0.36590000
H        2.78860000      -0.00560000       0.83610000
H        3.01410000      -1.55570000       0.00480000
