18
Properties=species:S:1:pos:R:3 gdb_79605=T pbc="F F F"
C       -0.05530000       1.56130000       0.05860000
C        0.04930000       0.04900000      -0.05050000
C        0.60770000      -0.79600000      -1.17350000
C        1.62410000      -0.30700000      -2.19030000
C        2.13450000       1.09060000      -2.28460000
N        2.85700000       0.06870000      -1.49620000
C        2.61470000      -0.01470000      -0.08100000
O        3.36720000       0.41370000       0.75140000
C        1.31550000      -0.76190000       0.16830000
H        0.91640000       2.05410000       0.13280000
H       -0.60340000       1.99320000      -0.78530000
H       -0.60140000       1.81880000       0.97120000
H       -0.81110000      -0.44470000       0.39620000
H        0.02250000      -1.65530000      -1.47880000
H        1.75690000      -0.95500000      -3.05320000
H        2.65560000       1.40500000      -3.18500000
H        1.63100000       1.88910000      -1.75790000
H        1.32590000      -1.55920000       0.90210000
