19
Properties=species:S:1:pos:R:3 gdb_70383=T pbc="F F F"
C       -0.14320000       1.55970000       0.01850000
C        0.01640000       0.06740000       0.03910000
C       -0.79680000      -0.84760000       0.93360000
C        0.69520000      -0.89370000       1.00150000
N        1.15550000      -1.77700000      -0.09710000
C        0.64780000      -0.77230000      -1.11120000
C       -0.25020000      -1.35430000      -2.20090000
C        1.76720000      -0.03780000      -1.71160000
N        2.66130000       0.52810000      -2.17930000
H        0.76620000       2.05760000      -0.33250000
H       -0.96850000       1.86260000      -0.63720000
H       -0.36820000       1.93450000       1.02170000
H       -1.29520000      -0.32050000       1.74140000
H       -1.33500000      -1.70900000       0.54940000
H        1.28730000      -0.72310000       1.89210000
H        2.16850000      -1.83740000      -0.13470000
H       -1.07710000      -1.90220000      -1.74550000
H       -0.65320000      -0.55840000      -2.83440000
H        0.31410000      -2.04550000      -2.83300000
