18
Properties=species:S:1:pos:R:3 gdb_51333=T pbc="F F F"
O       -0.04750000       1.03100000       1.42930000
C        0.01440000       1.44750000       0.30240000
C        1.20660000       1.25520000      -0.62290000
N        1.32850000       2.38940000      -1.52640000
C        2.10610000       3.55720000      -1.11410000
C        3.59650000       3.33110000      -1.48530000
C        3.66180000       1.96380000      -2.16270000
C        2.23850000       2.29920000      -2.70590000
C        2.58110000       3.82610000      -2.50110000
H       -0.82170000       2.01220000      -0.16810000
H        2.09300000       1.03280000      -0.01180000
H        0.98840000       0.36190000      -1.22790000
H        1.78730000       4.24420000      -0.34010000
H        4.39380000       3.89140000      -1.01430000
H        4.38890000       1.96810000      -2.97870000
H        3.79090000       1.05750000      -1.56150000
H        1.83510000       1.81550000      -3.59440000
H        2.52320000       4.69490000      -3.13890000
