16
Properties=species:S:1:pos:R:3 gdb_53882=T pbc="F F F"
N       -0.13950000       1.23050000      -0.42980000
C        0.04850000      -0.04450000      -0.01190000
N        1.12300000      -0.67380000       0.28930000
C       -1.28170000      -0.78620000       0.11250000
O       -2.33810000      -0.25280000      -0.19350000
N       -1.14760000      -2.04520000       0.58200000
C       -2.27100000      -2.92440000       0.78990000
C       -2.31350000      -4.07220000      -0.21250000
O       -2.76240000      -5.15920000       0.03290000
H        0.63160000       1.82660000      -0.67110000
H       -1.08040000       1.49050000      -0.68360000
H        1.96000000      -0.10150000       0.17720000
H       -0.19690000      -2.32470000       0.79110000
H       -2.28870000      -3.33630000       1.80370000
H       -3.17720000      -2.32220000       0.64520000
H       -1.89620000      -3.81330000      -1.21240000
