18
Properties=species:S:1:pos:R:3 gdb_32239=T pbc="F F F"
C       -0.01490000       1.46950000       0.02760000
N       -0.07760000       0.02130000       0.09660000
C        0.59500000      -0.68000000       1.06390000
N        1.15690000       0.01080000       2.05680000
C        1.77190000      -0.69910000       3.00980000
C        1.84110000      -2.07920000       2.97480000
N        1.28190000      -2.77740000       1.97180000
C        0.65910000      -2.10500000       1.01840000
C        0.01970000      -2.87940000      -0.10140000
H        1.00190000       1.84160000      -0.15610000
H       -0.66970000       1.80760000      -0.77860000
H       -0.35810000       1.90360000       0.96910000
H       -0.26750000      -0.46670000      -0.76150000
H        2.22480000      -0.13400000       3.82090000
H        2.34670000      -2.64460000       3.75110000
H       -1.05460000      -2.66780000      -0.17420000
H        0.46540000      -2.63280000      -1.07510000
H        0.15700000      -3.94670000       0.07560000
