15
Properties=species:S:1:pos:R:3 gdb_20902=T pbc="F F F"
C       -0.00010000       1.57960000      -0.01700000
C        0.03200000       0.05070000       0.01750000
N        0.74210000      -0.47290000       1.17280000
C        2.06530000      -0.80780000       1.29770000
N        2.37210000      -1.21900000       2.48920000
N        1.18160000      -1.13760000       3.17470000
C        0.12670000      -0.68000000       2.41710000
O       -1.03700000      -0.49530000       2.71150000
H        1.01060000       1.99670000      -0.06170000
H       -0.55290000       1.92400000      -0.89620000
H       -0.49790000       1.96640000       0.87590000
H       -0.98560000      -0.34540000       0.07320000
H        0.50410000      -0.35520000      -0.88250000
H        2.77060000      -0.74270000       0.48350000
H        1.13440000      -1.40950000       4.14060000
