21
Properties=species:S:1:pos:R:3 gdb_122082=T pbc="F F F"
C       -0.09920000       1.43910000      -0.00720000
C       -0.04840000      -0.08770000       0.09010000
C        0.73550000      -0.56310000       1.30530000
O        0.75130000      -1.98430000       1.30030000
C        1.44550000      -2.57540000       2.40370000
C        0.44390000      -2.79840000       3.55430000
O       -0.67310000      -3.53330000       3.11790000
C        2.05230000      -3.82530000       1.95020000
C        2.56990000      -4.85410000       1.61050000
H        0.90560000       1.86800000      -0.08760000
H       -0.66600000       1.75600000      -0.88700000
H       -0.57900000       1.88070000       0.87320000
H       -1.06340000      -0.49820000       0.14500000
H        0.41290000      -0.51360000      -0.80780000
H        1.76860000      -0.18090000       1.26940000
H        0.27640000      -0.17570000       2.22860000
H        2.24170000      -1.89740000       2.74900000
H        0.92300000      -3.36020000       4.36200000
H        0.15330000      -1.81300000       3.95560000
H       -0.90240000      -3.17160000       2.25210000
H        3.02030000      -5.76550000       1.30310000
