19
Properties=species:S:1:pos:R:3 gdb_107360=T pbc="F F F"
C        0.05110000       1.54120000       0.41320000
C        0.03460000       0.06970000      -0.01930000
C       -1.36150000      -0.49530000      -0.16850000
C       -2.10320000      -1.02770000       1.05020000
C       -1.66460000      -1.96470000      -0.03760000
O       -2.65370000      -2.34550000      -0.97400000
C       -3.05130000      -1.27130000      -1.72320000
O       -3.90930000      -1.35400000      -2.54970000
C       -2.24400000      -0.03370000      -1.31380000
H        1.07670000       1.90560000       0.52350000
H       -0.45050000       2.17860000      -0.32250000
H       -0.46010000       1.67520000       1.37210000
H        0.57060000      -0.04100000      -0.97140000
H        0.58650000      -0.53190000       0.71360000
H       -1.55380000      -1.05600000       1.98540000
H       -3.16790000      -0.84160000       1.15310000
H       -0.91910000      -2.73530000       0.11470000
H       -2.93630000       0.77660000      -1.06910000
H       -1.65500000       0.29480000      -2.17740000
