19
Properties=species:S:1:pos:R:3 gdb_8596=T pbc="F F F"
C       -0.15660000       1.63620000      -0.06020000
C        0.00320000       0.12110000      -0.00110000
C        0.95420000      -0.58290000      -1.08760000
C        1.89070000      -0.91000000       0.10270000
C        2.57980000      -1.80200000       1.18930000
N        2.11360000      -0.55330000       2.01060000
C        2.64650000       0.23880000       0.81600000
C        0.80760000      -0.70080000       1.11320000
H        0.78590000       2.16770000      -0.20880000
H       -0.81210000       1.90690000      -0.89590000
H       -0.61740000       2.01520000       0.85790000
H       -1.00050000      -0.31430000      -0.02730000
H        0.47130000      -1.45200000      -1.54170000
H        1.36130000       0.05470000      -1.87830000
H        2.07480000      -2.72900000       1.47210000
H        3.66900000      -1.91320000       1.19650000
H        3.73870000       0.24140000       0.74300000
H        2.25930000       1.25490000       0.76830000
H        0.21810000      -1.55190000       1.46340000
