13
Properties=species:S:1:pos:R:3 gdb_42648=T pbc="F F F"
O        0.01110000       0.06990000       0.01270000
C        0.01120000       1.26080000       0.06960000
C       -1.04970000       2.32630000      -0.00320000
C       -0.40980000       3.55380000       0.61720000
N        0.86160000       3.11960000       1.23490000
C        1.10240000       2.35170000      -0.03270000
C       -0.01390000       3.20620000      -0.79440000
C       -0.13690000       3.80180000      -2.06810000
N       -0.20970000       4.30590000      -3.10860000
H       -2.11000000       2.24570000      -0.19650000
H       -1.00540000       4.38140000       0.97980000
H        1.48730000       3.92430000       1.23640000
H        2.12070000       2.14800000      -0.34800000
