16
Properties=species:S:1:pos:R:3 gdb_62410=T pbc="F F F"
C       -0.07350000       1.59470000      -0.02120000
C        0.02830000       0.06520000      -0.02330000
C       -1.28310000      -0.53630000       0.21700000
N       -2.33020000      -0.99600000       0.38380000
C        0.76500000      -0.65740000      -1.17720000
C        2.19980000      -0.34580000      -1.18950000
N        1.71710000      -1.36150000      -0.20670000
C        1.10560000      -0.59890000       0.86550000
N        1.31320000      -0.54190000       2.09740000
H        0.89600000       2.04870000      -0.23650000
H       -0.79530000       1.93510000      -0.76820000
H       -0.40090000       1.93810000       0.96290000
H        0.26570000      -1.21610000      -1.95870000
H        2.80140000      -0.79130000      -1.97480000
H        2.57110000       0.60360000      -0.81530000
H        2.09330000      -1.14670000       2.36750000
