21
Properties=species:S:1:pos:R:3 gdb_87970=T pbc="F F F"
C        0.82490000       1.25500000       0.10250000
C       -0.05270000       0.00480000       0.02060000
C        0.16090000      -0.82010000      -1.26360000
C        1.30140000      -1.79210000      -0.88240000
C        1.29910000      -1.74040000       0.64540000
C        1.64850000      -2.89890000       1.53380000
C        2.58040000      -1.70270000       1.42970000
O        3.77230000      -1.80220000       0.70600000
O        0.23980000      -0.91860000       1.07630000
H        1.88040000       1.01230000      -0.05720000
H        0.52410000       1.98320000      -0.65820000
H        0.72660000       1.72340000       1.08580000
H       -1.10170000       0.28820000       0.15270000
H       -0.75090000      -1.37650000      -1.49740000
H        0.40330000      -0.19630000      -2.12760000
H        1.11510000      -2.80060000      -1.25970000
H        2.27110000      -1.47310000      -1.27090000
H        1.08500000      -3.02020000       2.45280000
H        1.95750000      -3.81930000       1.04790000
H        2.60150000      -1.02530000       2.28300000
H        4.37120000      -2.38110000       1.18930000
