17
Properties=species:S:1:pos:R:3 gdb_27764=T pbc="F F F"
N       -0.00290000       1.45680000      -0.07090000
C       -0.03690000       0.05380000      -0.07830000
C       -1.09620000      -0.84260000      -0.07480000
C       -0.56260000      -2.17260000      -0.22760000
O       -1.26930000      -3.33600000      -0.34700000
C        0.79940000      -2.04940000      -0.21660000
C        2.16680000      -2.39130000      -0.78200000
C        2.40070000      -0.83840000      -0.80740000
N        1.10410000      -0.68900000      -0.10140000
H        0.59490000       1.82680000       0.66020000
H       -0.93010000       1.84700000       0.03950000
H       -2.13240000      -0.59080000       0.10700000
H       -2.20230000      -3.11480000      -0.41470000
H        2.84450000      -2.94320000      -0.12370000
H        2.17180000      -2.86210000      -1.76810000
H        3.25730000      -0.45080000      -0.24970000
H        2.38710000      -0.40710000      -1.81220000
