17
Properties=species:S:1:pos:R:3 gdb_52170=T pbc="F F F"
N        0.14210000       0.79830000       1.22280000
C        0.02080000      -0.07190000       0.33140000
C       -1.14680000      -0.78470000      -0.31830000
C       -0.05260000      -1.50400000      -1.13270000
C        0.01230000      -1.23630000      -2.62390000
N        1.29000000      -1.63670000      -3.17960000
C        1.41380000      -2.61420000      -4.11930000
O        0.49160000      -3.22350000      -4.61730000
O        0.97970000      -0.73500000      -0.41650000
H        1.12290000       1.02620000       1.39390000
H       -1.73500000      -1.40970000       0.35440000
H       -1.81420000      -0.13760000      -0.89140000
H        0.07340000      -2.56840000      -0.91740000
H       -0.75600000      -1.81320000      -3.14550000
H       -0.16770000      -0.16990000      -2.81080000
H        2.12280000      -1.21710000      -2.79690000
H        2.47310000      -2.79090000      -4.38880000
