18
Properties=species:S:1:pos:R:3 gdb_126858=T pbc="F F F"
C       -0.07130000       1.54320000      -0.04790000
C       -0.07660000       0.02050000       0.09530000
N       -1.41090000      -0.54440000       0.02480000
N       -2.11990000      -0.87870000       1.13400000
N       -3.25250000      -1.32180000       0.77630000
N       -3.31320000      -1.28000000      -0.59050000
C       -4.48100000      -1.71930000      -1.30940000
C       -2.13990000      -0.77540000      -1.12840000
N       -1.73540000      -0.54690000      -2.32120000
H        0.95570000       1.91750000      -0.00160000
H       -0.50150000       1.83280000      -1.00970000
H       -0.64660000       2.01250000       0.75530000
H        0.50330000      -0.43950000      -0.71010000
H        0.34360000      -0.29350000       1.05350000
H       -5.21950000      -2.04250000      -0.57580000
H       -4.89890000      -0.90270000      -1.90820000
H       -4.23910000      -2.55730000      -1.97220000
H       -2.43350000      -0.80970000      -3.01120000
