22
Properties=species:S:1:pos:R:3 gdb_13448=T pbc="F F F"
C       -0.27620000       1.02590000      -1.69100000
C       -0.02180000      -0.19350000      -0.82910000
C        1.36620000      -0.61520000      -0.38960000
C        2.62080000       0.14730000      -0.76370000
C        0.36990000      -0.11120000       0.63690000
C        0.54460000       1.19700000       1.38110000
C       -0.76640000       1.70610000       1.97220000
O       -0.48740000       2.90080000       2.68780000
H        0.36930000       1.86960000      -1.43640000
H       -0.10840000       0.79610000      -2.74950000
H       -1.31290000       1.36690000      -1.59020000
H       -0.68780000      -1.01880000      -1.07110000
H        1.52530000      -1.69110000      -0.36900000
H        2.47030000       1.22880000      -0.79080000
H        3.42520000      -0.05110000      -0.04660000
H        2.97980000      -0.15750000      -1.75320000
H       -0.06290000      -0.88920000       1.26370000
H        1.26140000       1.06810000       2.20200000
H        0.95490000       1.98080000       0.73830000
H       -1.49460000       1.88370000       1.16470000
H       -1.19760000       0.93660000       2.63400000
H       -1.31150000       3.22790000       3.05970000
