14
Properties=species:S:1:pos:R:3 gdb_124260=T pbc="F F F"
C       -0.01970000       1.50220000      -0.02010000
C       -0.02120000      -0.00520000       0.02770000
O       -0.03530000      -0.64080000       1.05960000
C       -0.00370000      -0.74730000      -1.28500000
C       -0.00380000      -2.14930000      -1.31030000
N        0.01150000      -2.80360000      -2.46120000
C        0.02640000      -2.01760000      -3.54600000
N        0.02730000      -0.68450000      -3.57590000
N        0.01170000      -0.04000000      -2.41380000
H        0.86410000       1.86410000      -0.55450000
H       -0.88410000       1.86550000      -0.58440000
H       -0.03650000       1.89200000       0.99770000
H       -0.01640000      -2.71560000      -0.38420000
H        0.03940000      -2.50730000      -4.51530000
