22
Properties=species:S:1:pos:R:3 gdb_64415=T pbc="F F F"
C        0.07720000       1.49350000      -0.03030000
C       -0.03080000      -0.03090000       0.02160000
C       -1.50410000      -0.47120000       0.08220000
O        0.57210000      -0.47820000      -1.20230000
C        0.87140000      -1.85970000      -1.27090000
C        1.98860000      -2.24950000      -0.29860000
C        1.70570000      -1.68520000       1.08560000
N        2.15680000      -0.29980000       1.31400000
C        0.71760000      -0.57870000       1.23580000
H        1.12960000       1.78100000      -0.06630000
H       -0.42700000       1.87500000      -0.92280000
H       -0.38520000       1.94720000       0.85220000
H       -2.02440000      -0.14440000      -0.82220000
H       -1.60670000      -1.55740000       0.16520000
H       -2.00470000      -0.02640000       0.94810000
H       -0.02420000      -2.46820000      -1.07160000
H        1.16950000      -2.04860000      -2.30660000
H        2.06890000      -3.34150000      -0.25650000
H        2.94640000      -1.85790000      -0.65490000
H        1.80060000      -2.37850000       1.91810000
H        2.43590000      -0.17280000       2.28300000
H        0.14530000      -0.53990000       2.16110000
