20
Properties=species:S:1:pos:R:3 gdb_60244=T pbc="F F F"
C        0.13680000       1.53810000      -0.08970000
C       -0.05170000       0.05500000       0.20890000
O        0.14910000      -0.12810000       1.60050000
C       -1.44240000      -0.44790000      -0.21580000
C       -1.56790000      -1.97140000      -0.14630000
N       -1.24950000      -2.58090000       1.19460000
C       -2.58220000      -3.24500000       1.29640000
C       -2.99000000      -2.54880000      -0.01410000
O       -3.99600000      -2.46250000      -0.64920000
H        1.10490000       1.87160000       0.29400000
H        0.10170000       1.73230000      -1.16620000
H       -0.64340000       2.12860000       0.40140000
H        0.70720000      -0.51270000      -0.36340000
H       -0.28310000      -0.96400000       1.84170000
H       -2.18640000       0.01900000       0.44110000
H       -1.66810000      -0.13460000      -1.24130000
H       -1.01100000      -2.43650000      -0.97130000
H       -0.48800000      -3.24790000       1.14480000
H       -2.57050000      -4.33890000       1.21940000
H       -3.15810000      -2.96160000       2.18330000
