20
Properties=species:S:1:pos:R:3 gdb_58723=T pbc="F F F"
C        0.05330000       1.48090000      -0.17940000
C       -0.01070000      -0.03630000       0.06430000
C        0.71910000      -0.42500000       1.36090000
C       -1.42780000      -0.52450000       0.06930000
C       -1.99460000      -1.93900000      -0.14740000
C       -3.20070000      -1.57570000       0.75200000
C       -2.66270000      -0.20830000       0.96870000
N       -3.61680000      -0.45950000      -0.17040000
C       -2.40880000      -0.79670000      -1.04430000
H        1.09100000       1.82720000      -0.21880000
H       -0.43460000       1.75190000      -1.12030000
H       -0.44880000       2.02710000       0.62720000
H        0.49590000      -0.53700000      -0.77380000
H        0.24170000       0.03980000       2.23120000
H        0.70770000      -1.50860000       1.51220000
H        1.76200000      -0.09310000       1.33790000
H       -1.47030000      -2.85920000      -0.36380000
H       -3.92000000      -2.16430000       1.30900000
H       -2.86350000       0.53310000       1.73380000
H       -2.36230000      -0.65410000      -2.11730000
