16
Properties=species:S:1:pos:R:3 gdb_126069=T pbc="F F F"
C        1.10960000       1.07480000      -0.62870000
C        0.08280000       0.15260000      -0.03080000
O        0.53480000      -1.10000000       0.49670000
C       -0.02670000      -0.15550000       1.41320000
C        0.88600000       0.37420000       2.44420000
C        2.23610000       0.16700000       2.61240000
N        2.52970000       0.86720000       3.73250000
N        1.44020000       1.47050000       4.24210000
N        0.44240000       1.16900000       3.46350000
H        1.96570000       1.20970000       0.03590000
H        1.46950000       0.67450000      -1.58210000
H        0.66370000       2.05600000      -0.82260000
H       -0.84310000       0.06580000      -0.60320000
H       -1.01650000      -0.41060000       1.79220000
H        2.95920000      -0.40860000       2.06180000
H        3.41450000       0.96880000       4.20380000
