16
Properties=species:S:1:pos:R:3 gdb_72080=T pbc="F F F"
O       -0.08560000       1.33300000       0.05220000
C        0.03490000      -0.03870000       0.04340000
C        1.07340000      -0.79780000       0.87270000
C        0.55310000      -2.20820000       0.50800000
N       -0.88870000      -2.07290000       0.83740000
C       -1.17420000      -0.89470000       0.01280000
C       -0.25880000      -0.89060000      -1.22920000
C        0.58610000      -2.10790000      -1.04610000
O        1.15730000      -2.80500000      -1.84270000
H        0.71050000       1.71220000      -0.33720000
H        2.10320000      -0.63410000       0.54020000
H        0.98390000      -0.57950000       1.94020000
H        1.04080000      -3.07150000       0.95300000
H       -1.39760000      -2.88150000       0.48220000
H       -2.17710000      -0.49180000      -0.01500000
H       -0.53070000      -0.45090000      -2.17700000
