16
Properties=species:S:1:pos:R:3 gdb_96741=T pbc="F F F"
C       -0.12470000       0.86370000       1.87430000
N       -0.04990000      -0.23720000       0.93340000
C       -1.01170000      -0.58990000       0.20690000
C       -0.94000000      -1.77550000      -0.71220000
C        0.30230000      -2.62140000      -0.48150000
O        1.01880000      -3.00200000      -1.36790000
O       -2.27940000       0.01180000       0.17870000
C       -2.38670000       1.28670000      -0.29610000
O       -3.42080000       1.87470000      -0.29650000
H        0.27340000       0.51870000       2.83340000
H        0.53040000       1.67230000       1.53310000
H       -1.13170000       1.26530000       2.03570000
H       -1.83020000      -2.39820000      -0.54310000
H       -0.97300000      -1.45760000      -1.76000000
H        0.48760000      -2.88730000       0.57900000
H       -1.42770000       1.67570000      -0.67960000
