25
Properties=species:S:1:pos:R:3 gdb_103597=T pbc="F F F"
C       -0.06570000       1.63330000       0.04130000
C       -0.14790000       0.11130000      -0.11920000
C        0.68250000      -0.47370000      -1.27500000
C        0.27200000       0.09250000      -2.63230000
C        2.22120000      -0.46480000      -0.98490000
C        2.16470000      -1.96680000      -0.60780000
C        3.21760000      -2.89100000      -1.20190000
O        2.16610000      -2.05310000       0.81640000
C        0.72650000      -2.03630000      -1.20600000
H        0.97080000       1.96950000       0.15450000
H       -0.49400000       2.16120000      -0.81630000
H       -0.61370000       1.95730000       0.93180000
H        0.18120000      -0.36780000       0.80900000
H       -1.19710000      -0.18220000      -0.26540000
H        0.45680000       1.17000000      -2.69640000
H        0.83400000      -0.38440000      -3.44270000
H       -0.79490000      -0.07470000      -2.82430000
H        2.82100000      -0.28000000      -1.88030000
H        2.57320000       0.18540000      -0.18070000
H        4.20460000      -2.65840000      -0.78950000
H        2.99110000      -3.94010000      -0.97060000
H        3.26340000      -2.79550000      -2.29120000
H        1.93070000      -2.95710000       1.05400000
H       -0.02280000      -2.51630000      -0.56860000
H        0.70120000      -2.50560000      -2.19440000
