20
Properties=species:S:1:pos:R:3 gdb_13262=T pbc="F F F"
C       -0.02460000       1.46540000      -0.12760000
C        0.00270000       0.01420000      -0.00770000
C        0.03780000      -1.18550000       0.09250000
C        0.03910000      -2.64130000       0.20450000
C       -1.35850000      -3.25550000       0.07170000
C       -2.08710000      -3.18560000      -1.29870000
C       -2.59990000      -4.63090000      -1.05350000
C       -1.48470000      -4.80360000       0.01330000
H        0.97300000       1.89620000       0.01380000
H       -0.38120000       1.77840000      -1.11540000
H       -0.68680000       1.91660000       0.61990000
H        0.69190000      -3.07050000      -0.56870000
H        0.47650000      -2.93960000       1.16760000
H       -2.00470000      -2.85210000       0.85840000
H       -2.82480000      -2.39360000      -1.44400000
H       -1.36990000      -3.14610000      -2.12540000
H       -3.59590000      -4.63660000      -0.60140000
H       -2.60180000      -5.32040000      -1.90080000
H       -0.58480000      -5.25780000      -0.41570000
H       -1.73170000      -5.33190000       0.93770000
