18
Properties=species:S:1:pos:R:3 gdb_24246=T pbc="F F F"
C       -0.04380000       1.46280000       0.09970000
C        1.28430000       0.75370000       0.02610000
C        2.04770000       0.43120000       1.32820000
C        1.09380000      -0.48760000       2.05250000
C        0.00090000      -0.76780000       1.26920000
N       -0.84490000      -1.58020000       1.97130000
C       -0.28580000      -1.82920000       3.21050000
C        0.91590000      -1.15490000       3.29470000
C       -0.01860000      -0.05150000      -0.02230000
H       -0.36480000       1.88310000       1.04750000
H       -0.34330000       2.03360000      -0.77410000
H        1.86230000       0.88640000      -0.88110000
H        3.00730000      -0.05200000       1.10180000
H        2.28430000       1.34310000       1.89030000
H       -1.73020000      -1.93520000       1.65590000
H       -0.77780000      -2.48210000       3.91380000
H        1.57910000      -1.16820000       4.14660000
H       -0.36680000      -0.52180000      -0.93590000
