14
Properties=species:S:1:pos:R:3 gdb_19450=T pbc="F F F"
C       -0.06250000      -1.21070000      -0.08290000
C       -0.02590000      -0.01010000      -0.02570000
C       -0.01380000       1.43630000       0.01200000
C        0.06010000       2.09940000       1.44530000
O        1.48180000       1.76570000       1.46470000
C        1.40890000       2.12450000       0.05090000
C        1.01450000       3.60860000       0.11690000
C        0.08610000       3.59130000       1.07660000
H       -0.08440000      -2.27160000      -0.12300000
H       -0.73910000       1.86800000      -0.68170000
H       -0.50940000       1.73610000       2.29830000
H        2.24880000       1.78750000      -0.55310000
H        1.39890000       4.41470000      -0.48960000
H       -0.52170000       4.37880000       1.49580000
