17
Properties=species:S:1:pos:R:3 gdb_68286=T pbc="F F F"
O        0.07500000       1.30100000      -0.15760000
C        0.08400000      -0.06830000      -0.04210000
C        0.71190000      -1.02830000      -1.07340000
C        0.09590000      -1.94130000       0.03490000
C        0.71040000      -0.96170000       1.07980000
C       -1.16970000      -1.03370000       0.00580000
O       -1.94110000      -0.86750000       1.18240000
C       -2.12250000      -1.07610000      -1.16940000
O       -2.01930000      -1.77480000      -2.14690000
H       -0.33400000       1.66890000       0.63440000
H        0.27280000      -1.07690000      -2.06700000
H        1.80290000      -1.01690000      -1.10610000
H        0.10540000      -3.02780000       0.06180000
H        1.80130000      -0.94730000       1.12980000
H        0.24500000      -0.92790000       2.06290000
H       -2.45780000      -1.66660000       1.33170000
H       -2.99540000      -0.39970000      -1.02770000
