17
Properties=species:S:1:pos:R:3 gdb_28569=T pbc="F F F"
C        0.18060000       1.38870000      -0.26380000
C       -0.03900000      -0.06520000      -0.04850000
C       -1.07710000      -0.79600000       0.44300000
C       -0.66520000      -2.16680000       0.40570000
C        0.59450000      -2.17470000      -0.10970000
O        0.98560000      -0.89780000      -0.39370000
C        1.53300000      -3.26300000      -0.39820000
C        2.67120000      -3.11950000      -1.32000000
O        2.88300000      -3.13700000       0.08910000
H        1.03680000       1.75410000       0.31450000
H        0.37780000       1.61450000      -1.31800000
H       -0.70550000       1.94690000       0.04600000
H       -2.01930000      -0.40450000       0.79350000
H       -1.22840000      -3.03080000       0.72300000
H        1.10130000      -4.25320000      -0.25930000
H        3.03150000      -3.99190000      -1.86470000
H        2.83770000      -2.15950000      -1.80440000
