18
Properties=species:S:1:pos:R:3 gdb_86286=T pbc="F F F"
N       -0.07700000       1.49200000       0.04460000
C       -0.01500000       0.04160000      -0.00670000
C        0.30230000      -0.68710000       1.32040000
C       -0.86740000      -1.67120000       1.05770000
N       -1.65770000      -2.05780000       2.19300000
C       -1.44780000      -0.61980000       0.02370000
O       -2.35680000       0.24030000       0.65240000
C       -1.97280000      -1.13820000      -1.24050000
N       -2.34610000      -1.58510000      -2.24020000
H        0.61230000       1.87180000       0.68270000
H        0.06700000       1.91600000      -0.86480000
H        0.57620000      -0.34810000      -0.84110000
H        1.30170000      -1.10820000       1.43910000
H        0.07820000      -0.04880000       2.18040000
H       -0.51860000      -2.56100000       0.52720000
H       -2.19020000      -1.24960000       2.50670000
H       -2.33520000      -2.76850000       1.93300000
H       -1.93990000       1.12350000       0.57930000
