14
Properties=species:S:1:pos:R:3 gdb_49828=T pbc="F F F"
O       -0.04620000      -0.00220000      -0.26020000
C       -0.00580000       1.15900000       0.05450000
C        1.24750000       1.99870000      -0.00070000
N        2.44460000       1.31040000      -0.48120000
C        2.59630000       2.04710000      -1.64630000
O        3.35160000       1.98310000      -2.57190000
C        1.38770000       2.91570000      -1.25550000
C        0.39290000       3.57450000      -2.10340000
O        1.30800000       4.30910000      -1.27460000
H       -0.90750000       1.70180000       0.41520000
H        1.37870000       2.54680000       0.94070000
H        2.69490000       0.34620000      -0.31510000
H        0.57750000       3.64190000      -3.17310000
H       -0.64890000       3.60850000      -1.79060000
