17
Properties=species:S:1:pos:R:3 gdb_24316=T pbc="F F F"
C       -0.13320000       1.50270000      -0.09260000
C        1.42100000       1.73120000       0.11620000
C        2.15960000       1.70900000       1.49860000
N        3.02620000       0.46480000       1.48490000
C        2.23210000      -0.42840000       0.69620000
C        1.37290000      -1.47540000       1.00680000
C        0.09670000      -1.19170000       0.39700000
C        0.22820000       0.00250000      -0.29780000
N        1.57770000       0.31950000      -0.25010000
H       -0.74870000       1.67130000       0.79390000
H       -0.55590000       2.05040000      -0.93770000
H        1.87920000       2.43510000      -0.58550000
H        2.77050000       2.59610000       1.68330000
H        1.44490000       1.60490000       2.32110000
H        3.92360000       0.67650000       1.05750000
H        1.58370000      -2.31080000       1.65890000
H       -0.80350000      -1.76750000       0.55950000
