19
Properties=species:S:1:pos:R:3 gdb_66797=T pbc="F F F"
C       -0.01790000       1.53400000       0.01190000
C        0.00180000       0.03350000       0.00230000
C        0.64560000      -0.86680000      -1.11980000
C       -0.62520000      -1.78820000      -1.11500000
C        0.03720000      -2.69290000      -0.01500000
C        1.30780000      -1.76950000      -0.02000000
C        0.66440000      -0.88020000       1.10240000
C       -0.60640000      -1.80150000       1.10670000
C       -1.26910000      -0.89880000       0.00710000
H        0.99890000       1.94580000       0.00590000
H       -0.54170000       1.93140000      -0.86630000
H       -0.52640000       1.91990000       0.90400000
H        1.14620000      -0.48560000      -2.00990000
H       -1.14110000      -2.15270000      -2.00210000
H        0.05160000      -3.78190000      -0.02150000
H        2.33910000      -2.11930000      -0.03120000
H        1.17980000      -0.51020000       1.98880000
H       -1.10770000      -2.17700000       1.99760000
H       -2.29940000      -0.54320000       0.01810000
