19
Properties=species:S:1:pos:R:3 gdb_41159=T pbc="F F F"
C        0.01920000       1.54410000       0.09840000
O        1.46960000       1.46860000      -0.07250000
C        1.31790000       0.13130000      -0.63150000
C        2.21810000      -1.05260000      -0.31820000
C        1.25320000      -2.28670000      -0.34930000
C       -0.12660000      -1.94950000       0.26620000
C        0.02630000      -0.85700000       1.33580000
C       -0.01620000       0.01370000       0.07500000
O       -0.85260000      -0.97250000      -0.57370000
H       -0.26030000       2.05280000       1.02540000
H       -0.46650000       2.02360000      -0.76210000
H        1.15120000       0.20910000      -1.71660000
H        3.03910000      -1.17990000      -1.02890000
H        2.66300000      -0.93970000       0.67430000
H        1.09630000      -2.62320000      -1.37970000
H        1.69950000      -3.12390000       0.19840000
H       -0.73720000      -2.83370000       0.45800000
H       -0.88800000      -0.73330000       1.91890000
H        0.90420000      -0.83900000       1.98270000
