19
Properties=species:S:1:pos:R:3 gdb_65242=T pbc="F F F"
O       -0.07360000       1.31210000       0.54460000
C        0.05780000       0.01220000       0.01990000
C        1.12750000      -0.27170000      -1.00220000
C        1.23480000      -0.83910000       0.40740000
C       -1.31690000      -0.58900000      -0.09700000
C       -2.32370000      -0.04060000      -1.15930000
C       -2.71680000      -1.49700000      -1.55220000
C       -1.50430000      -1.97600000      -0.74210000
O       -0.87660000      -2.99660000      -0.70800000
H        0.79570000       1.72460000       0.56770000
H        0.92720000      -0.96400000      -1.81280000
H        1.78550000       0.54860000      -1.27350000
H        1.96660000      -0.39880000       1.07800000
H        1.08180000      -1.90530000       0.52770000
H       -1.78190000      -0.59700000       0.89800000
H       -3.12340000       0.59320000      -0.77720000
H       -1.80890000       0.48220000      -1.96790000
H       -3.65800000      -1.83410000      -1.10530000
H       -2.72020000      -1.76950000      -2.61040000
