19
Properties=species:S:1:pos:R:3 gdb_126211=T pbc="F F F"
C        0.41100000       1.79510000      -0.20080000
C       -0.07240000       0.34440000      -0.02900000
C        0.49580000      -0.32090000       1.17810000
C       -0.04800000      -0.83920000       2.31800000
C       -1.46290000      -0.95980000       2.78430000
C       -1.94040000      -2.41770000       2.88590000
N        1.01130000      -1.30880000       3.07020000
N        2.10640000      -1.11460000       2.48730000
O        1.82420000      -0.47000000       1.24230000
H        1.49990000       1.83330000      -0.28480000
H       -0.02000000       2.23380000      -1.10480000
H        0.11520000       2.41070000       0.65370000
H       -1.16370000       0.31380000       0.04240000
H        0.20220000      -0.23980000      -0.91570000
H       -1.55590000      -0.47930000       3.76540000
H       -2.11180000      -0.39930000       2.10280000
H       -1.91370000      -2.90950000       1.90860000
H       -1.29800000      -2.98480000       3.56500000
H       -2.96590000      -2.46330000       3.26430000
