16
Properties=species:S:1:pos:R:3 gdb_25822=T pbc="F F F"
N       -0.11480000       1.36900000       0.08930000
C        0.05170000      -0.01280000      -0.03400000
O        1.14960000      -0.51360000      -0.20190000
C       -1.18480000      -0.78920000       0.00250000
C       -1.35550000      -2.14670000       0.16760000
C       -2.74560000      -2.41990000       0.17720000
C       -3.39940000      -1.21360000      -0.00470000
N       -4.75150000      -0.90910000      -0.18900000
N       -2.45860000      -0.22450000      -0.08360000
H        0.76530000       1.85290000       0.20460000
H       -0.83560000       1.68470000       0.72270000
H       -0.54850000      -2.84820000       0.30890000
H       -3.22220000      -3.37790000       0.31840000
H       -5.32970000      -1.73630000      -0.12600000
H       -5.09990000      -0.21250000       0.46070000
H       -2.64230000       0.68280000      -0.47980000
