18
Properties=species:S:1:pos:R:3 gdb_94138=T pbc="F F F"
C       -0.02570000       1.47530000      -0.15460000
N       -0.04740000       0.05030000       0.09360000
C       -1.29450000      -0.61640000       0.50300000
C       -0.45410000      -1.60010000       1.34490000
C        0.69970000      -0.53300000       1.24910000
C        2.03770000      -1.01580000       0.91610000
C        3.12870000      -1.43290000       0.63450000
C        0.74120000       0.32410000       2.44190000
C        0.73380000       1.05290000       3.39820000
H        0.99730000       1.79060000      -0.38340000
H       -0.64800000       1.68850000      -1.03000000
H       -0.39420000       2.07690000       0.69280000
H       -1.94740000       0.01250000       1.12890000
H       -1.88130000      -1.02370000      -0.32620000
H       -0.79620000      -1.83400000       2.35130000
H       -0.18830000      -2.50930000       0.80640000
H        4.09530000      -1.79590000       0.38570000
H        0.74690000       1.68770000       4.24980000
