19
Properties=species:S:1:pos:R:3 gdb_126188=T pbc="F F F"
C        0.17330000       1.64230000      -0.05830000
C        0.05020000       0.10830000      -0.00420000
C        0.62130000      -0.49280000       1.24190000
C        0.05040000      -0.76170000       2.47700000
C       -1.35910000      -0.55830000       2.93570000
C        1.12710000      -1.28790000       3.23040000
O        1.03380000      -1.70070000       4.51470000
N        2.26310000      -1.35030000       2.55600000
N        1.92820000      -0.85010000       1.33740000
H        1.22090000       1.95460000      -0.00660000
H       -0.25360000       2.03420000      -0.98680000
H       -0.35220000       2.10500000       0.78200000
H       -1.00490000      -0.17520000      -0.08090000
H        0.54620000      -0.32990000      -0.87950000
H       -1.72640000      -1.43460000       3.47980000
H       -1.45450000       0.29890000       3.61340000
H       -2.03280000      -0.38370000       2.09120000
H        1.90530000      -2.02860000       4.76890000
H        2.62710000      -0.81850000       0.61640000
