17
Properties=species:S:1:pos:R:3 gdb_79269=T pbc="F F F"
C        0.05610000       1.55430000       0.09930000
C        0.08670000       0.03860000       0.00020000
C        0.78070000      -0.65650000      -1.17170000
C        2.25140000      -0.79100000      -0.72990000
O        2.40140000      -0.15510000       0.53980000
C        1.13000000      -0.74420000       0.89020000
C        0.88240000      -1.00590000       2.33520000
O        1.61940000      -0.69260000       3.23250000
C        1.25480000      -1.80130000      -0.28530000
H        1.06980000       1.95840000       0.05480000
H       -0.52560000       1.98150000      -0.72460000
H       -0.40510000       1.88200000       1.03720000
H       -0.90360000      -0.40470000       0.14940000
H        0.47570000      -0.69590000      -2.20990000
H        3.10500000      -0.85230000      -1.39090000
H       -0.08640000      -1.52570000       2.52040000
H        1.18330000      -2.87820000      -0.34120000
