18
Properties=species:S:1:pos:R:3 gdb_62893=T pbc="F F F"
C       -0.05430000       1.56410000      -0.05560000
C       -0.04430000       0.04660000      -0.05800000
O       -1.26280000      -0.49670000      -0.49900000
C        1.21520000      -0.67640000      -0.62500000
O        1.97550000      -0.16670000       0.54030000
C        0.70880000      -0.67760000       1.12340000
C        0.85660000      -1.90930000       0.22020000
C        0.18650000      -3.18800000      -0.02020000
N        1.58610000      -3.12050000       0.48830000
H        0.91270000       1.95810000       0.25500000
H       -0.29590000       1.93980000      -1.05500000
H       -0.81900000       1.93770000       0.63750000
H       -1.97700000       0.04500000      -0.14890000
H        1.67910000      -0.59920000      -1.60980000
H        0.58360000      -0.60460000       2.20380000
H       -0.53630000      -3.57810000       0.69050000
H        0.01360000      -3.48560000      -1.05140000
H        2.25460000      -3.32260000      -0.25090000
