18
Properties=species:S:1:pos:R:3 gdb_47018=T pbc="F F F"
O       -0.00390000      -0.10210000       0.27550000
C       -0.00500000       1.10500000       0.10710000
C       -1.33980000       1.86010000      -0.08400000
C       -1.32150000       3.32030000       0.39450000
N       -0.13850000       3.94290000      -0.16840000
C        0.50030000       5.23540000       0.14410000
C        1.87080000       4.53020000      -0.12060000
C        1.05270000       3.25270000      -0.13600000
C        1.20160000       1.91920000       0.01520000
H       -1.56110000       1.84050000      -1.15960000
H       -2.12500000       1.29270000       0.41970000
H       -2.22420000       3.85200000       0.07740000
H       -1.27800000       3.35870000       1.49710000
H        0.21040000       6.05710000      -0.51620000
H        0.37180000       5.54110000       1.19040000
H        2.33350000       4.78700000      -1.07580000
H        2.61380000       4.60460000       0.67450000
H        2.17160000       1.44260000       0.06940000
