21
Properties=species:S:1:pos:R:3 gdb_93523=T pbc="F F F"
C       -0.07110000       1.56010000      -0.06220000
C        0.02480000       0.03810000      -0.01030000
N        0.70630000      -0.47370000      -1.19630000
C        0.54440000      -1.91710000      -1.32940000
C        0.91650000      -2.67090000      -0.05640000
O        1.15140000      -3.86520000      -0.07020000
N        0.90470000      -1.93940000       1.09670000
C        0.79030000      -0.48570000       1.22160000
C        2.16780000       0.15870000       1.42500000
H        0.90960000       2.01330000      -0.22880000
H       -0.72960000       1.87000000      -0.88080000
H       -0.48850000       1.96020000       0.86670000
H       -1.00250000      -0.36850000       0.06760000
H        0.36420000      -0.00700000      -2.02910000
H       -0.49120000      -2.22320000      -1.56990000
H        1.18620000      -2.30040000      -2.12640000
H        1.20100000      -2.46280000       1.90930000
H        0.16890000      -0.28270000       2.10380000
H        2.75950000       0.07610000       0.51000000
H        2.07770000       1.21440000       1.69670000
H        2.70510000      -0.34680000       2.23350000
