18
Properties=species:S:1:pos:R:3 gdb_8105=T pbc="F F F"
C       -0.00430000       1.56400000       0.06100000
C       -0.00420000       0.06380000       0.02550000
C       -1.26270000      -0.80880000      -0.08040000
C       -0.63630000      -1.79820000       0.95640000
O       -0.38750000      -3.14450000       0.54890000
C        0.63210000      -0.96470000       1.01450000
C        1.17870000      -0.77270000      -0.37010000
O        1.14410000      -1.75250000      -1.36510000
H        0.99380000       1.95580000       0.28330000
H       -0.31340000       1.97830000      -0.90650000
H       -0.69230000       1.95180000       0.82160000
H       -2.16760000      -0.32570000       0.29600000
H       -1.45460000      -1.22530000      -1.07370000
H       -1.18670000      -1.78890000       1.90440000
H       -1.23380000      -3.58380000       0.41280000
H        1.22940000      -0.81000000       1.90610000
H        2.11360000      -0.21500000      -0.39370000
H        0.76720000      -2.54830000      -0.96460000
