21
Properties=species:S:1:pos:R:3 gdb_114084=T pbc="F F F"
C       -0.01980000       1.29020000      -0.17860000
O       -0.04530000      -0.05230000       0.24450000
C       -1.31210000      -0.65220000       0.14460000
C       -1.74530000      -1.06760000      -1.30210000
C       -1.83300000      -2.59570000      -1.06070000
C       -2.04910000      -3.52100000      -2.22420000
C       -2.60220000      -2.68680000       0.28480000
C       -1.26470000      -2.07150000       0.74070000
O       -0.59560000      -2.83300000      -0.30570000
H        0.99620000       1.66060000      -0.02160000
H       -0.27180000       1.39700000      -1.24470000
H       -0.71920000       1.91380000       0.40170000
H       -2.06660000      -0.02300000       0.64250000
H       -2.69020000      -0.62480000      -1.62870000
H       -0.96340000      -0.83110000      -2.02780000
H       -1.25590000      -3.39200000      -2.96790000
H       -2.04850000      -4.56440000      -1.89690000
H       -3.00790000      -3.30820000      -2.70840000
H       -3.52990000      -2.12130000       0.41240000
H       -2.71150000      -3.71830000       0.62210000
H       -0.83430000      -2.19350000       1.73370000
