17
Properties=species:S:1:pos:R:3 gdb_129661=T pbc="F F F"
N        0.02110000       1.38010000      -0.10380000
C       -0.02500000      -0.01580000      -0.03350000
C       -1.11410000      -0.86470000      -0.10700000
N       -2.47160000      -0.45360000      -0.17060000
C       -0.55460000      -2.16680000      -0.03170000
C       -1.29490000      -3.46820000       0.00720000
O       -2.39550000      -3.49850000      -0.90520000
N        0.77400000      -2.13360000       0.05790000
N        1.07400000      -0.81000000       0.05290000
H        0.73150000       1.78240000       0.49760000
H       -0.88010000       1.76320000       0.16330000
H       -2.65950000       0.04730000      -1.03520000
H       -3.06720000      -1.27540000      -0.18600000
H       -0.58800000      -4.28950000      -0.17090000
H       -1.74780000      -3.63460000       0.99180000
H       -2.03830000      -3.32610000      -1.78310000
H        2.03860000      -0.52770000       0.03850000
