18
Properties=species:S:1:pos:R:3 gdb_64794=T pbc="F F F"
C        0.29720000       1.61700000       0.08090000
C       -0.16020000       0.17320000       0.03070000
C       -1.60450000      -0.08000000       0.46980000
C       -1.79710000       0.26360000       1.94090000
O       -2.01770000       1.39580000       2.31980000
C       -1.66890000      -0.83530000       2.88000000
C       -1.58550000      -1.75020000       3.65790000
C        0.43520000      -0.72670000      -0.99180000
N        0.77620000      -0.89130000       0.43320000
H        1.33640000       1.70330000      -0.25240000
H       -0.31970000       2.24560000      -0.57050000
H        0.22040000       2.02560000       1.09250000
H       -2.27930000       0.55950000      -0.10880000
H       -1.85520000      -1.12830000       0.29340000
H       -1.50360000      -2.55340000       4.34920000
H       -0.14980000      -1.53730000      -1.41860000
H        1.17890000      -0.30530000      -1.66360000
H        1.69450000      -0.49640000       0.62070000
