21
Properties=species:S:1:pos:R:3 gdb_122120=T pbc="F F F"
C        0.01450000       1.49700000      -0.03120000
C        0.03900000      -0.01690000       0.08550000
O       -1.28740000      -0.50030000      -0.03440000
C       -1.38440000      -1.90340000       0.05480000
C       -2.86490000      -2.29290000      -0.02820000
C       -3.07520000      -3.80940000      -0.16850000
O       -4.42590000      -4.15010000      -0.38220000
C       -3.62700000      -1.72450000       1.15410000
O       -4.50490000      -2.31130000       1.74660000
H        1.02730000       1.90090000       0.05670000
H       -0.39840000       1.80120000      -0.99700000
H       -0.60290000       1.93360000       0.75900000
H        0.67130000      -0.45800000      -0.70270000
H        0.46710000      -0.32650000       1.05340000
H       -0.82840000      -2.38760000      -0.76520000
H       -0.94040000      -2.26340000       0.99950000
H       -3.27670000      -1.79640000      -0.91990000
H       -2.51460000      -4.17430000      -1.03620000
H       -2.66400000      -4.31480000       0.72120000
H       -4.89590000      -3.84480000       0.40540000
H       -3.32420000      -0.70250000       1.45840000
