23
Properties=species:S:1:pos:R:3 gdb_38244=T pbc="F F F"
C       -0.03340000       1.63360000      -0.01820000
C        1.49850000       1.39000000       0.01170000
C        1.16870000       0.16060000       0.92550000
C       -0.07350000       0.07270000      -0.00010000
C       -1.35750000      -0.73120000       0.05280000
C       -1.80750000      -0.81440000      -1.44770000
C       -0.61950000      -0.28390000      -2.31810000
C        0.57430000      -0.28680000      -1.35500000
C        1.72690000       0.75880000      -1.38560000
H       -0.41470000       2.06070000       0.91330000
H       -0.45550000       2.16930000      -0.87360000
H        2.19500000       2.16490000       0.33480000
H        1.86170000      -0.68750000       0.92980000
H        0.93840000       0.46460000       1.95000000
H       -1.15990000      -1.73580000       0.44450000
H       -2.12320000      -0.28400000       0.69360000
H       -2.05600000      -1.84590000      -1.71330000
H       -2.71170000      -0.22540000      -1.62480000
H       -0.45720000      -0.89770000      -3.20860000
H       -0.82870000       0.73180000      -2.67000000
H        0.98160000      -1.30460000      -1.30160000
H        1.61810000       1.49910000      -2.18540000
H        2.71350000       0.29790000      -1.48980000
