18
Properties=species:S:1:pos:R:3 gdb_83039=T pbc="F F F"
C       -0.20060000       1.55430000      -0.09690000
C       -0.00430000       0.05960000       0.01610000
C        1.32750000      -0.61770000      -0.21490000
N        2.52570000       0.14980000      -0.37670000
C        3.05060000       0.89920000       0.62500000
C        2.56190000       0.94010000       1.89190000
C        1.39710000       0.16460000       2.27960000
O        0.98470000       0.07750000       3.42640000
C        0.71690000      -0.61470000       1.17730000
H        0.65280000       2.11460000       0.28830000
H       -0.35490000       1.84480000      -1.14200000
H       -1.08400000       1.86590000       0.46970000
H       -0.84800000      -0.52230000      -0.34640000
H        1.34230000      -1.54650000      -0.77710000
H        2.89220000       0.26140000      -1.30630000
H        3.92720000       1.47480000       0.34160000
H        3.06420000       1.52360000       2.65200000
H        0.27610000      -1.53510000       1.54380000
