18
Properties=species:S:1:pos:R:3 gdb_95274=T pbc="F F F"
C        0.01880000       1.56840000      -0.04550000
C        0.15940000       0.05920000      -0.02920000
O        1.01860000      -0.35140000      -1.09220000
C        1.36050000      -1.69960000      -0.83340000
C        1.57760000      -1.78970000       0.68060000
O        2.95320000      -1.50740000       1.03540000
C        2.92850000      -0.30750000       1.66130000
N        1.82660000       0.28670000       1.85450000
C        0.79400000      -0.56260000       1.24330000
H        0.98850000       2.04190000       0.11560000
H       -0.38690000       1.89500000      -1.00670000
H       -0.65920000       1.89440000       0.74850000
H       -0.83000000      -0.41240000      -0.16880000
H        0.54250000      -2.37920000      -1.12670000
H        2.25680000      -1.95380000      -1.40310000
H        1.32140000      -2.76350000       1.10070000
H        3.90230000       0.05260000       1.97450000
H        0.03140000      -0.80890000       1.98640000
