20
Properties=species:S:1:pos:R:3 gdb_114777=T pbc="F F F"
C        0.17640000       1.54240000       0.19190000
C       -0.12200000       0.06720000      -0.07120000
N        0.55790000      -0.42020000      -1.26640000
C        0.03920000       0.14280000      -2.53140000
C        0.12280000      -1.02610000      -3.50600000
O        1.52820000      -1.43160000      -3.58120000
C        1.25550000      -2.44780000      -2.61810000
C       -0.23950000      -2.28550000      -2.68050000
C        0.50850000      -1.86400000      -1.43300000
H        1.25490000       1.70440000       0.27460000
H       -0.20030000       2.17880000      -0.61520000
H       -0.30140000       1.86880000       1.12080000
H        0.23280000      -0.52670000       0.77870000
H       -1.21890000      -0.08260000      -0.12940000
H       -1.00920000       0.47710000      -2.43210000
H        0.64440000       0.98770000      -2.87390000
H       -0.31320000      -0.86530000      -4.49210000
H        1.90250000      -3.31730000      -2.59380000
H       -1.06670000      -2.97100000      -2.80330000
H        0.45380000      -2.45690000      -0.52780000
