15
Properties=species:S:1:pos:R:3 gdb_27697=T pbc="F F F"
C        0.08700000       1.42270000      -0.01750000
C       -0.04500000      -0.05570000      -0.01150000
N       -1.12450000      -0.77000000      -0.13240000
C       -0.70460000      -2.08720000      -0.06130000
C       -1.64650000      -3.23440000      -0.15900000
C        0.65160000      -2.09260000       0.10430000
O        1.08350000      -0.78540000       0.13710000
C        1.59570000      -3.12740000       0.23490000
N        2.34640000      -4.00440000       0.34040000
H        0.74070000       1.75150000      -0.83140000
H       -0.89990000       1.86660000      -0.14540000
H        0.52480000       1.77760000       0.92090000
H       -2.18250000      -3.20800000      -1.11320000
H       -1.11750000      -4.18640000      -0.07920000
H       -2.39730000      -3.18050000       0.63580000
