25
Properties=species:S:1:pos:R:3 gdb_112905=T pbc="F F F"
C       -0.03400000       1.59110000      -0.06150000
C       -0.07460000       0.06530000       0.07080000
C        0.77960000      -0.48600000       1.21590000
C        0.68740000      -2.01620000       1.40040000
C        1.97550000      -2.44950000       2.16060000
C        2.65820000      -3.65770000       1.51110000
C        2.87540000      -1.17800000       2.17100000
C        2.29470000      -0.24920000       1.09580000
O        2.68540000      -0.64830000      -0.21980000
H        0.97430000       1.94190000      -0.30340000
H       -0.70130000       1.93490000      -0.85820000
H       -0.34640000       2.08300000       0.86710000
H       -1.11180000      -0.25920000       0.22450000
H        0.26030000      -0.39230000      -0.86600000
H        0.46800000       0.00050000       2.15180000
H       -0.22620000      -2.31120000       1.92510000
H        0.65970000      -2.49570000       0.41580000
H        1.72250000      -2.71430000       3.19290000
H        2.96070000      -3.41510000       0.48700000
H        3.55170000      -3.96120000       2.06820000
H        1.98320000      -4.51960000       1.46850000
H        2.82570000      -0.67400000       3.14310000
H        3.93200000      -1.40610000       1.98770000
H        2.56840000       0.80170000       1.26670000
H        3.64470000      -0.59950000      -0.26940000
