17
Properties=species:S:1:pos:R:3 gdb_12447=T pbc="F F F"
O       -0.00560000      -0.06600000      -0.15340000
C       -0.03290000       1.14560000      -0.05630000
C       -1.34380000       1.93180000       0.03330000
C       -1.52700000       2.73960000       1.30170000
C       -0.63770000       3.50370000       1.93780000
C        0.78470000       3.80480000       1.54710000
C        1.18200000       3.33690000       0.14360000
N        1.10850000       1.89750000      -0.03780000
H       -1.43200000       2.57660000      -0.85270000
H       -2.13540000       1.18560000      -0.04690000
H       -2.51710000       2.65700000       1.74320000
H       -0.96140000       3.98280000       2.86000000
H        0.94680000       4.89020000       1.60890000
H        1.47000000       3.36250000       2.28490000
H        0.55210000       3.83890000      -0.60130000
H        2.21090000       3.64040000      -0.06730000
H        1.96210000       1.36030000      -0.05080000
