16
Properties=species:S:1:pos:R:3 gdb_12876=T pbc="F F F"
O        0.04550000       1.38160000       0.12640000
C       -0.03030000      -0.00150000      -0.01100000
C       -1.34610000      -0.75750000      -0.03810000
C       -2.60170000       0.04370000      -0.36850000
C       -2.34960000       0.56540000      -1.76950000
C       -1.18040000       0.14250000      -2.26230000
C       -0.43040000      -0.69770000      -1.28010000
O        0.37470000      -1.74150000      -1.72680000
H       -0.40240000       1.77580000      -0.63290000
H        0.76960000      -0.48940000       0.53710000
H       -1.41930000      -1.66160000       0.55540000
H       -3.51280000      -0.56550000      -0.32300000
H       -2.74420000       0.87110000       0.33990000
H       -3.04140000       1.22960000      -2.27580000
H       -0.77110000       0.37930000      -3.23810000
H       -0.19450000      -2.39570000      -2.14890000
