16
Properties=species:S:1:pos:R:3 gdb_11086=T pbc="F F F"
C       -0.72150000      -0.72480000      -0.86780000
C       -0.27130000       0.25950000      -0.34280000
C        0.28560000       1.42590000       0.30780000
C        0.15000000       1.56080000       1.85750000
C        1.60940000       2.12650000       1.90940000
C        1.83430000       1.52410000       0.48140000
C        1.68150000       3.57500000       1.95900000
C        1.72950000       4.77670000       1.98580000
H       -1.12360000      -1.58830000      -1.33680000
H       -0.08610000       2.33720000      -0.17150000
H       -0.64670000       2.20280000       2.23390000
H        0.09110000       0.58140000       2.33640000
H        2.23990000       1.69710000       2.69250000
H        2.28960000       0.53350000       0.54020000
H        2.37840000       2.13690000      -0.23760000
H        1.77960000       5.83680000       2.01880000
