13
Properties=species:S:1:pos:R:3 gdb_124380=T pbc="F F F"
C       -0.11050000       1.45060000      -0.09700000
C        0.33720000       0.02010000      -0.06800000
O        1.22750000      -0.47010000       0.55100000
O       -0.47580000      -0.73240000      -0.93170000
C       -0.24130000      -2.04960000      -1.00830000
N        0.28380000      -2.69340000      -1.99960000
C        0.18300000      -3.98600000      -1.54590000
N       -0.36200000      -4.13230000      -0.36880000
O       -0.65840000      -2.80990000       0.00320000
H        0.53050000       2.04160000       0.55500000
H       -0.06680000       1.83190000      -1.12080000
H       -1.15090000       1.51830000       0.23320000
H        0.52610000      -4.84050000      -2.11080000
