11
Properties=species:S:1:pos:R:3 gdb_23730=T pbc="F F F"
F        0.04200000       0.04270000      -0.29890000
C       -0.03910000       1.33900000      -0.02490000
C       -1.22710000       1.94460000       0.11450000
O       -1.29550000       3.27470000       0.39560000
C       -0.13030000       4.01090000       0.53920000
N       -0.13420000       5.25140000       0.80060000
C        1.10870000       3.24830000       0.36610000
N        1.15680000       1.98970000       0.10030000
H       -2.19410000       1.47120000       0.02440000
H       -1.08490000       5.61240000       0.88620000
H        2.03230000       3.80950000       0.47520000
