15
Properties=species:S:1:pos:R:3 gdb_1430=T pbc="F F F"
C        0.00460000       1.45090000      -0.01940000
N        0.03040000       0.00560000       0.06690000
C        0.46840000      -0.63320000      -0.93270000
N        0.53460000      -2.01920000      -0.95050000
C        0.08840000      -2.77580000       0.21420000
C        1.01900000      -2.67490000      -2.06320000
O        1.11610000      -3.87340000      -2.17640000
H        0.60430000       1.87790000       0.79250000
H        0.38160000       1.84780000      -0.97580000
H       -1.02140000       1.80910000       0.12300000
H        0.82960000      -0.16770000      -1.85970000
H       -0.96370000      -2.56190000       0.41710000
H        0.22990000      -3.83200000      -0.00860000
H        0.66960000      -2.48490000       1.09230000
H        1.31600000      -1.96700000      -2.85920000
