21
Properties=species:S:1:pos:R:3 gdb_109386=T pbc="F F F"
O        0.07160000       1.43030000       0.32570000
C        0.04080000       0.03700000       0.07940000
C       -1.38150000      -0.45450000      -0.03390000
C       -2.43370000       0.38030000      -0.04240000
C       -3.86470000      -0.09850000       0.00270000
C       -4.37780000      -0.81200000      -1.26790000
C       -3.30990000      -1.73950000      -1.89050000
C       -2.45690000      -2.50320000      -0.90660000
C       -1.55300000      -1.91080000      -0.11160000
H        0.98350000       1.72470000       0.25520000
H        0.58730000      -0.21400000      -0.84610000
H        0.53990000      -0.52380000       0.89060000
H       -2.24260000       1.44690000       0.00260000
H       -3.95060000      -0.81630000       0.82910000
H       -4.53040000       0.73670000       0.24260000
H       -5.27860000      -1.37930000      -1.00320000
H       -4.68050000      -0.08220000      -2.02880000
H       -3.78780000      -2.42930000      -2.59320000
H       -2.63790000      -1.10160000      -2.47960000
H       -2.54120000      -3.58700000      -0.89300000
H       -0.89010000      -2.52620000       0.49640000
