16
Properties=species:S:1:pos:R:3 gdb_17444=T pbc="F F F"
C       -0.12220000       1.46520000       0.07260000
C        0.12370000      -0.00380000       0.01390000
O       -0.80270000      -0.88630000       0.70140000
C        0.61840000      -0.98830000       0.97130000
C        1.30810000      -1.81630000      -0.14340000
C        0.37420000      -2.23310000      -1.25250000
O       -0.89180000      -2.78150000      -1.14220000
C        0.77130000      -0.77950000      -1.17440000
H        0.78740000       2.01700000      -0.18600000
H       -0.90470000       1.75530000      -0.63780000
H       -0.43950000       1.75870000       1.07650000
H        0.92460000      -0.90230000       2.00720000
H        2.31670000      -2.19700000      -0.03860000
H        0.91540000      -2.74150000      -2.04860000
H       -1.32320000      -2.29140000      -0.42850000
H        1.31860000      -0.27110000      -1.95970000
