15
Properties=species:S:1:pos:R:3 gdb_53223=T pbc="F F F"
C       -0.00360000       1.49580000      -0.00140000
C        0.02770000       0.04210000       0.03920000
C        0.06140000      -1.15970000       0.08480000
C        0.09110000      -2.61700000       0.11530000
O        0.53490000      -3.11110000       1.39080000
C       -0.41510000      -3.94830000       1.93000000
O       -0.26730000      -4.49190000       2.98580000
C       -1.54940000      -4.01270000       0.97400000
C       -1.27080000      -3.25040000      -0.07770000
H        0.58940000       1.88240000      -0.83700000
H       -1.02710000       1.86930000      -0.11300000
H        0.40680000       1.91790000       0.92210000
H        0.79770000      -2.98960000      -0.64050000
H       -2.42980000      -4.60630000       1.17080000
H       -1.87210000      -3.05890000      -0.95590000
