14
Properties=species:S:1:pos:R:3 gdb_2647=T pbc="F F F"
C       -0.01220000       1.48200000       0.01810000
C        0.00260000       0.02790000      -0.05170000
C        0.03010000      -1.17410000      -0.11270000
C        0.02560000      -2.62940000      -0.17740000
C       -1.37630000      -3.21140000       0.14350000
C       -1.39410000      -4.67080000       0.08180000
N       -1.38710000      -5.82500000       0.02790000
H        0.68430000       1.85000000       0.77920000
H        0.27490000       1.92920000      -0.93980000
H       -1.00960000       1.85650000       0.27310000
H        0.33200000      -2.97010000      -1.17310000
H        0.75340000      -3.04710000       0.52770000
H       -1.68980000      -2.89210000       1.14240000
H       -2.11220000      -2.81490000      -0.56300000
