17
Properties=species:S:1:pos:R:3 gdb_74252=T pbc="F F F"
C       -0.05860000       1.48010000       0.06280000
C        0.00240000      -0.00810000      -0.01760000
N        0.09250000      -0.67060000      -1.10330000
C        0.11400000      -2.11190000      -0.75180000
C        1.23610000      -2.81450000      -1.36820000
C        2.16130000      -3.40810000      -1.85280000
C        0.11390000      -2.13380000       0.78810000
C        1.21230000      -1.43570000       1.48910000
N       -0.07720000      -0.73650000       1.22190000
H        0.75040000       1.85810000       0.69760000
H        0.02120000       1.91760000      -0.93220000
H       -0.99880000       1.79050000       0.52990000
H       -0.81920000      -2.56110000      -1.11810000
H        2.97670000      -3.92850000      -2.29100000
H       -0.47010000      -2.88950000       1.30100000
H        1.40350000      -1.64350000       2.53690000
H        2.07650000      -1.12890000       0.90610000
