16
Properties=species:S:1:pos:R:3 gdb_52576=T pbc="F F F"
C        0.04530000       1.51130000       0.13080000
C        0.03930000       0.05870000       0.05100000
C        0.02940000      -1.14080000      -0.02100000
C        0.02770000      -2.60840000      -0.09470000
C       -1.35380000      -3.13550000       0.00340000
N       -2.42510000      -3.55520000       0.09660000
C        0.69440000      -3.12170000      -1.29960000
C        1.24980000      -3.54730000      -2.27650000
C        1.91520000      -4.05930000      -3.46460000
H        0.60620000       1.85800000       1.00510000
H        0.50490000       1.95250000      -0.75980000
H       -0.97440000       1.90270000       0.21010000
H        0.56050000      -2.99860000       0.78690000
H        2.79030000      -4.66210000      -3.20010000
H        1.23840000      -4.69010000      -4.05050000
H        2.25310000      -3.24140000      -4.10960000
