17
Properties=species:S:1:pos:R:3 gdb_65703=T pbc="F F F"
O       -0.04950000       1.44580000      -0.03260000
C        0.00880000       0.05360000       0.03390000
C        1.13440000      -0.49690000      -0.82170000
C        2.49430000      -0.01560000      -0.34540000
O        3.43480000      -0.74230000      -0.15150000
C       -0.36000000      -0.62290000       1.32260000
C       -1.30580000      -0.72290000       0.12040000
C       -2.51360000       0.04290000       0.10000000
C       -3.47860000       0.76320000       0.05370000
H       -0.97640000       1.71020000      -0.11560000
H        1.13840000      -1.58980000      -0.82930000
H        0.99210000      -0.13710000      -1.85000000
H        2.56540000       1.08120000      -0.18720000
H        0.16020000      -1.52870000       1.61410000
H       -0.67530000       0.01610000       2.13880000
H       -1.34360000      -1.67830000      -0.39370000
H       -4.35780000       1.35880000       0.03240000
