22
Properties=species:S:1:pos:R:3 gdb_117947=T pbc="F F F"
C       -0.10700000       1.51130000       0.08270000
C       -0.02400000      -0.01680000       0.06160000
C        0.69400000      -0.53770000      -1.19080000
N        0.76850000      -1.99340000      -1.26500000
C       -0.36580000      -2.71020000      -1.82200000
C        1.83560000      -2.60110000      -0.67050000
O        2.75550000      -2.01490000      -0.13530000
O        1.76300000      -3.95650000      -0.75000000
C        2.87190000      -4.64140000      -0.16600000
H        0.89160000       1.96080000       0.05530000
H       -0.66550000       1.89330000      -0.77960000
H       -0.60800000       1.86900000       0.98700000
H        0.52080000      -0.37640000       0.94140000
H       -1.03280000      -0.44500000       0.11360000
H        0.18060000      -0.18490000      -2.09390000
H        1.71560000      -0.15200000      -1.21170000
H       -0.11270000      -3.75960000      -1.95040000
H       -1.25150000      -2.64200000      -1.17620000
H       -0.62650000      -2.28720000      -2.79920000
H        3.80300000      -4.38800000      -0.67980000
H        2.97660000      -4.38470000       0.89110000
H        2.65420000      -5.70420000      -0.28010000
