20
Properties=species:S:1:pos:R:3 gdb_64930=T pbc="F F F"
C        0.41160000       0.99890000       0.83090000
C       -0.01940000      -0.06530000      -0.16500000
C        0.36670000       0.10410000      -1.59990000
N        1.02950000      -0.92030000      -0.78330000
C       -1.25270000      -0.74180000       0.15900000
C       -2.29530000      -1.27060000       0.45610000
C       -3.53130000      -1.91270000       0.79650000
C       -3.56580000      -3.41020000       1.06260000
C       -3.75430000      -2.45300000       2.20120000
H        1.32810000       1.49640000       0.49590000
H       -0.36690000       1.75870000       0.94900000
H        0.59690000       0.55520000       1.81430000
H       -0.28450000      -0.28410000      -2.37680000
H        0.91310000       1.00580000      -1.86650000
H        1.94150000      -0.58180000      -0.48270000
H       -4.41120000      -1.50430000       0.30710000
H       -4.42650000      -3.95840000       0.69630000
H       -2.62450000      -3.94170000       0.99270000
H       -2.94140000      -2.33460000       2.90740000
H       -4.74560000      -2.33780000       2.62510000
