13
Properties=species:S:1:pos:R:3 gdb_44519=T pbc="F F F"
O        0.00560000       0.05940000       0.52410000
C       -0.01380000       1.14980000       0.04930000
O       -1.17540000       1.79760000      -0.22440000
C       -1.11100000       3.09460000      -0.79020000
C       -0.06570000       3.35240000      -1.90430000
O       -0.07820000       4.77500000      -1.53030000
C       -0.05310000       4.08040000      -0.23390000
C        1.01380000       3.12050000      -0.81750000
O        1.12430000       1.82560000      -0.25390000
H       -2.12420000       3.46010000      -0.94180000
H       -0.07610000       3.08790000      -2.95940000
H       -0.04860000       4.67330000       0.67820000
H        2.01360000       3.51060000      -0.99500000
