20
Properties=species:S:1:pos:R:3 gdb_120354=T pbc="F F F"
C        0.04860000       1.61920000       0.08220000
C        0.00430000       0.08950000       0.03000000
C        0.66910000      -0.47760000      -1.22780000
C        0.65320000      -2.01640000      -1.29870000
C       -0.68180000      -2.66950000      -1.56930000
C       -0.57930000      -3.41960000      -2.67070000
N        0.71650000      -3.36170000      -3.20640000
C        1.52860000      -2.52250000      -2.46500000
O        2.68020000      -2.24350000      -2.70980000
H        1.08090000       1.98520000       0.06340000
H       -0.47300000       2.05970000      -0.77470000
H       -0.42470000       2.00100000       0.99220000
H        0.50160000      -0.32320000       0.91780000
H       -1.03930000      -0.24640000       0.08130000
H        0.17590000      -0.07360000      -2.12130000
H        1.71670000      -0.15760000      -1.27660000
H        1.09960000      -2.40550000      -0.37170000
H       -1.56710000      -2.55780000      -0.96250000
H       -1.32480000      -4.03190000      -3.15790000
H        1.02310000      -3.80260000      -4.05730000
