16
Properties=species:S:1:pos:R:3 gdb_60769=T pbc="F F F"
C       -0.06190000       1.48000000       0.00130000
N       -0.02860000       0.01810000       0.01840000
C        0.03070000      -0.62550000       1.26220000
O        0.06220000      -0.03600000       2.31360000
C       -0.05950000      -0.76370000      -1.14260000
O       -0.02400000      -1.97550000      -1.10710000
C       -0.14330000      -0.00500000      -2.45900000
C       -0.21790000      -0.94970000      -3.65030000
O       -0.96440000      -0.77450000      -4.57590000
H        0.78890000       1.89010000      -0.54900000
H       -0.98950000       1.85170000      -0.44190000
H       -0.00670000       1.80610000       1.03930000
H        0.04470000      -1.71650000       1.15480000
H       -1.00230000       0.67160000      -2.48630000
H        0.75440000       0.61940000      -2.57600000
H        0.48610000      -1.80300000      -3.61360000
