14
Properties=species:S:1:pos:R:3 gdb_16779=T pbc="F F F"
N       -0.11650000       1.30010000      -0.07150000
C       -0.03480000       0.03700000       0.01350000
N        1.09970000      -0.77550000       0.12930000
C        0.85700000      -2.14250000      -0.02340000
O        1.70690000      -2.99240000      -0.11390000
C       -0.63820000      -2.29740000      -0.05800000
C       -1.35110000      -1.79740000       1.17950000
C       -1.20710000      -0.89200000      -0.01940000
H        0.80240000       1.74490000      -0.03960000
H        2.04090000      -0.42000000       0.20400000
H       -1.05360000      -3.10880000      -0.63920000
H       -2.33890000      -2.20440000       1.36240000
H       -0.77160000      -1.58850000       2.07180000
H       -2.08190000      -0.58360000      -0.57420000
