19
Properties=species:S:1:pos:R:3 gdb_74453=T pbc="F F F"
C       -0.06010000       1.46990000       0.07320000
C       -0.00760000      -0.01650000       0.00410000
C       -0.02620000      -0.85880000      -1.03270000
C        0.05760000      -2.25640000      -0.37780000
C       -0.96170000      -2.05370000       0.81060000
C        0.08700000      -0.96660000       1.21550000
C        1.16930000      -1.97420000       0.70690000
C        0.06090000      -3.43130000      -1.21000000
C        0.06450000      -4.41990000      -1.89560000
H        0.82840000       1.87930000       0.57110000
H       -0.12370000       1.91300000      -0.92470000
H       -0.92630000       1.81340000       0.65350000
H       -0.08470000      -0.66950000      -2.09480000
H       -1.96600000      -1.71930000       0.54280000
H       -0.99640000      -2.90960000       1.49110000
H        0.11940000      -0.53250000       2.21450000
H        1.33330000      -2.82280000       1.37770000
H        2.11530000      -1.56700000       0.34430000
H        0.06760000      -5.29200000      -2.50080000
