15
Properties=species:S:1:pos:R:3 gdb_130428=T pbc="F F F"
N        0.19300000       1.29950000      -0.54590000
C       -0.01530000       0.10360000       0.27500000
C       -1.39430000      -0.48160000       0.18140000
N       -2.19060000      -0.63660000       1.21730000
N       -3.31860000      -1.16590000       0.65330000
C       -4.47320000      -1.50950000       1.37780000
O       -4.60410000      -1.37780000       2.55750000
C       -3.12730000      -1.29120000      -0.69750000
N       -1.93920000      -0.87290000      -1.03120000
H       -0.03390000       1.08040000      -1.51240000
H       -0.46060000       2.02390000      -0.26120000
H        0.71120000      -0.65420000      -0.04010000
H        0.19200000       0.33870000       1.32200000
H       -5.24260000      -1.91980000       0.69840000
H       -3.88430000      -1.68850000      -1.35820000
