18
Properties=species:S:1:pos:R:3 gdb_12743=T pbc="F F F"
C       -0.04960000       1.52880000      -0.00250000
C        0.04040000       0.03140000       0.03310000
C       -0.83110000      -0.83830000       0.89410000
C        0.66400000      -0.92310000       1.05600000
C        1.25340000      -1.79480000      -0.05400000
C        0.63190000      -0.81600000      -1.12330000
C       -0.28160000      -1.35410000      -2.11440000
C       -1.05090000      -1.81130000      -2.91880000
H        0.90080000       1.98230000      -0.30800000
H       -0.81880000       1.86090000      -0.71010000
H       -0.31080000       1.93090000       0.98190000
H       -1.35500000      -0.31160000       1.68590000
H       -1.38890000      -1.66750000       0.46500000
H        1.15300000      -0.68600000       1.99360000
H        2.34440000      -1.79140000      -0.09270000
H        0.89840000      -2.82840000      -0.09480000
H        1.43260000      -0.26100000      -1.62300000
H       -1.72560000      -2.21010000      -3.63510000
