18
Properties=species:S:1:pos:R:3 gdb_34870=T pbc="F F F"
C       -0.09590000      -1.26150000      -0.08420000
C       -0.05570000      -0.06070000      -0.01910000
C        0.02640000       1.38640000       0.05670000
C       -0.25500000       2.09000000       1.40590000
C        0.80180000       1.75910000       2.41790000
C        1.10930000       2.78320000       1.35690000
C        1.43060000       2.06680000       0.06350000
C        2.70450000       1.53320000      -0.45600000
N        2.04750000       2.70480000      -1.08560000
H       -0.14410000      -2.32100000      -0.13660000
H       -0.58230000       1.84090000      -0.73390000
H       -1.22000000       2.49540000       1.68080000
H        0.62600000       2.15650000       3.41220000
H        1.29050000       0.78840000       2.40220000
H        1.36660000       3.81140000       1.57600000
H        3.63960000       1.75350000       0.05160000
H        2.67440000       0.57770000      -0.97340000
H        1.58030000       2.42420000      -1.94520000
