14
Properties=species:S:1:pos:R:3 gdb_54777=T pbc="F F F"
N        0.56430000       0.44330000      -0.83740000
C        0.04060000       0.00050000       0.33350000
O        0.42100000       0.37440000       1.42570000
C       -1.09380000      -1.02720000       0.24570000
C       -2.24250000      -0.84930000      -0.79310000
O       -1.31270000      -1.30240000      -1.86960000
C       -0.99440000      -2.22860000      -0.74300000
C       -2.53780000      -2.36520000      -0.61390000
O       -3.41400000      -3.15490000      -0.52840000
H        1.31340000       1.11450000      -0.79510000
H        0.21790000       0.09520000      -1.71660000
H       -1.39690000      -1.26470000       1.26680000
H       -2.87290000       0.01280000      -0.99670000
H       -0.19310000      -2.94880000      -0.88900000
