24
Properties=species:S:1:pos:R:3 gdb_122170=T pbc="F F F"
C        0.27090000       1.52470000       0.09050000
C       -0.00870000       0.03720000      -0.04310000
O        0.69850000      -0.45600000      -1.16070000
C        0.50860000      -1.83960000      -1.37610000
C        1.31500000      -2.25670000      -2.58700000
C        1.06650000      -1.41080000      -3.82090000
N        2.69700000      -2.68620000      -2.29240000
C        1.72170000      -3.67950000      -2.77890000
C        1.37950000      -4.83280000      -1.86340000
H        1.34160000       1.70170000       0.22560000
H       -0.05380000       2.05880000      -0.80720000
H       -0.26190000       1.93780000       0.95230000
H        0.30260000      -0.49800000       0.87020000
H       -1.09090000      -0.14410000      -0.16600000
H        0.82730000      -2.40920000      -0.49250000
H       -0.56230000      -2.05290000      -1.54720000
H        1.33160000      -0.36770000      -3.62920000
H        1.65530000      -1.77530000      -4.66890000
H        0.00940000      -1.43570000      -4.11000000
H        3.32220000      -2.39850000      -3.04120000
H        1.81090000      -3.97320000      -3.82560000
H        1.35550000      -4.52470000      -0.81640000
H        0.40680000      -5.26530000      -2.12280000
H        2.13170000      -5.62390000      -1.95630000
