21
Properties=species:S:1:pos:R:3 gdb_67452=T pbc="F F F"
C       -0.04750000       1.52310000       0.01660000
C        0.00680000       0.01740000       0.02790000
C        0.60240000      -0.78870000      -1.18560000
C        1.61670000      -1.46420000      -0.20540000
C        0.83480000      -0.88660000       0.98500000
O       -0.33600000      -1.67600000       1.29500000
C       -1.19340000      -0.85220000       0.45650000
C       -1.71700000      -1.59790000      -0.76510000
C       -0.51270000      -1.70800000      -1.74170000
H        0.93540000       1.95710000      -0.19810000
H       -0.73990000       1.88700000      -0.75260000
H       -0.38350000       1.91970000       0.98110000
H        1.07480000      -0.18870000      -1.96600000
H        1.69930000      -2.55430000      -0.23950000
H        2.61660000      -1.02530000      -0.28460000
H        1.36490000      -0.56240000       1.88500000
H       -1.97890000      -0.37710000       1.05720000
H       -2.13190000      -2.56950000      -0.48170000
H       -2.53150000      -1.01770000      -1.21510000
H       -0.80720000      -1.40220000      -2.75010000
H       -0.15410000      -2.73840000      -1.82280000
