16
Properties=species:S:1:pos:R:3 gdb_68720=T pbc="F F F"
C       -0.01760000       1.52110000       0.04810000
C       -0.04630000       0.02530000       0.03740000
N        1.15250000      -0.73450000      -0.30820000
C        0.56870000      -0.96180000       1.03100000
C        1.34000000      -0.72120000       2.20320000
C        1.96640000      -0.53630000       3.21280000
C       -0.69400000      -1.81510000       0.92650000
O       -1.83070000      -1.01640000       1.27830000
C       -1.28010000      -0.87180000      -0.03810000
H        0.95110000       1.87690000       0.40630000
H       -0.17690000       1.92260000      -0.95890000
H       -0.80280000       1.91000000       0.70290000
H        0.95840000      -1.51670000      -0.93180000
H        2.52330000      -0.36800000       4.10120000
H       -0.79230000      -2.89090000       1.01010000
H       -1.93760000      -1.05790000      -0.87960000
