17
Properties=species:S:1:pos:R:3 gdb_31109=T pbc="F F F"
N        0.63910000       1.40660000       0.66420000
C        0.09730000       0.18030000       0.40550000
C       -0.97880000      -0.47760000       0.88970000
C       -0.98160000      -1.79070000       0.27870000
C       -1.80460000      -2.84490000       0.39200000
N       -0.73320000      -5.46740000      -1.63560000
H       -1.03800000      -5.68020000      -2.58160000
H       -0.12550000      -4.65250000      -1.70670000
H       -0.13960000      -6.24250000      -1.35280000
C        0.21480000      -1.80500000      -0.61800000
O        0.67090000      -2.63310000      -1.35230000
O        0.83550000      -0.55970000      -0.49070000
H        1.21800000       1.78220000      -0.07250000
H        0.02010000       2.08030000       1.08760000
H       -1.69540000      -0.09410000       1.59800000
H       -1.63360000      -3.76030000      -0.16740000
H       -2.66580000      -2.80620000       1.05080000
