21
Properties=species:S:1:pos:R:3 gdb_97667=T pbc="F F F"
C       -0.08780000       1.51940000      -0.00950000
C       -0.02140000      -0.01570000      -0.00510000
C        1.15540000      -0.56050000      -0.89320000
C        2.03100000      -0.69830000       0.37970000
C        0.75050000      -0.57200000       1.24590000
C       -1.33230000      -0.59150000      -0.25590000
C       -2.41050000      -1.08900000      -0.46200000
C       -3.72230000      -1.67040000      -0.71280000
O       -3.63440000      -3.09170000      -0.67700000
H        0.90180000       1.94780000       0.18010000
H       -0.44160000       1.89000000      -0.97640000
H       -0.77110000       1.88060000       0.76520000
H        0.90650000      -1.52780000      -1.33400000
H        1.50560000       0.10820000      -1.68400000
H        2.60440000      -1.62150000       0.48320000
H        2.71480000       0.14380000       0.51360000
H        0.78610000       0.08780000       2.11680000
H        0.35960000      -1.54330000       1.55500000
H       -4.43330000      -1.29890000       0.04370000
H       -4.09140000      -1.32150000      -1.69150000
H       -4.51680000      -3.43600000      -0.84950000
