20
Properties=species:S:1:pos:R:3 gdb_117488=T pbc="F F F"
C       -0.24200000       1.43390000       0.17020000
C       -0.06460000      -0.06610000       0.02660000
O       -1.35640000      -0.67220000       0.17480000
C       -1.41310000      -2.02230000       0.07810000
N       -0.37290000      -2.70910000      -0.13300000
C       -0.38080000      -4.15660000      -0.24550000
C       -2.84880000      -2.50540000       0.25740000
C       -3.91690000      -1.45680000       0.47530000
O       -3.09630000      -3.68960000       0.22160000
H        0.72530000       1.93350000       0.06290000
H       -0.91730000       1.82390000      -0.59670000
H       -0.65310000       1.68770000       1.15160000
H        0.34840000      -0.34170000      -0.94970000
H        0.61090000      -0.47670000       0.78490000
H        0.64120000      -4.48870000      -0.44900000
H       -0.73140000      -4.63990000       0.67290000
H       -1.03410000      -4.50840000      -1.05100000
H       -3.93570000      -0.75450000      -0.36380000
H       -4.88410000      -1.94870000       0.58230000
H       -3.68900000      -0.86340000       1.36600000
