19
Properties=species:S:1:pos:R:3 gdb_38134=T pbc="F F F"
C        0.01950000       1.59350000       0.09710000
C        1.30400000       0.79960000      -0.00770000
C        2.20500000       0.68070000       1.16120000
C        1.93920000      -0.06930000       2.23280000
C        0.69610000      -0.88360000       2.39070000
C       -0.39370000      -0.30760000       3.33140000
O       -1.25750000      -0.00890000       2.21950000
C       -0.38480000      -0.69970000       1.28760000
C       -0.03700000       0.08920000       0.04370000
H       -0.21190000       2.05580000       1.04930000
H       -0.31540000       2.14430000      -0.77490000
H        1.80220000       0.83230000      -0.97260000
H        3.13350000       1.24510000       1.11950000
H        2.65110000      -0.10730000       3.05440000
H        0.94760000      -1.92670000       2.60810000
H       -0.84030000      -1.04260000       4.01460000
H       -0.12360000       0.59240000       3.89600000
H       -0.83650000      -1.65540000       0.99220000
H       -0.38210000      -0.34690000      -0.88750000
