15
Properties=species:S:1:pos:R:3 gdb_131619=T pbc="F F F"
O       -0.16060000       1.45000000      -0.23990000
C        0.00880000       0.06900000       0.04900000
C       -1.34440000      -0.56230000       0.03340000
C       -1.75030000      -1.89350000       0.00830000
C       -3.17080000      -1.81850000       0.03630000
N       -3.60310000      -0.56670000       0.07100000
N       -2.47330000       0.17220000       0.07600000
C       -0.92170000      -3.03530000      -0.03610000
C       -0.21050000      -4.00740000      -0.07460000
H        0.67230000       1.89980000      -0.07440000
H        0.65350000      -0.43110000      -0.68880000
H        0.47590000      -0.07730000       1.03560000
H       -3.87150000      -2.63970000       0.02840000
H       -2.51560000       1.17800000       0.06570000
H        0.41040000      -4.86760000      -0.10950000
