21
Properties=species:S:1:pos:R:3 gdb_84553=T pbc="F F F"
C        0.09400000       1.57720000       0.07030000
C        0.01650000       0.04890000       0.01980000
C        0.78610000      -0.58420000      -1.15790000
C        1.48980000      -1.68170000      -0.83840000
C        1.19120000      -2.05870000       0.59300000
C        1.96020000      -1.86090000       1.94920000
C        2.20490000      -0.39300000       1.54620000
C        0.71720000      -0.69620000       1.14780000
C        0.57690000      -1.38420000       2.54090000
H        1.13220000       1.91480000       0.15070000
H       -0.33530000       2.02420000      -0.83260000
H       -0.45710000       1.96960000       0.93090000
H       -1.04160000      -0.24860000      -0.04750000
H        0.73550000      -0.15170000      -2.15350000
H        2.06450000      -2.27040000      -1.54550000
H        0.45820000      -2.87610000       0.63710000
H        2.66290000      -2.54160000       2.43360000
H        2.34720000       0.31830000       2.36450000
H        2.90790000      -0.21240000       0.73230000
H       -0.20480000      -2.14290000       2.63770000
H        0.63200000      -0.74830000       3.42880000
