22
Properties=species:S:1:pos:R:3 gdb_22268=T pbc="F F F"
C       -0.06700000       1.45330000      -0.19720000
C        0.12890000      -0.04000000      -0.04970000
C        1.50460000      -0.66400000      -0.06260000
C        0.66380000      -0.68690000       1.20720000
C        1.10770000       0.16420000       2.38810000
C        0.10240000      -2.02000000       1.60710000
C        0.96060000      -2.95770000       2.41820000
N       -1.08700000      -2.29810000       1.22870000
O       -1.49370000      -3.57320000       1.66190000
H        0.74680000       2.02980000       0.25180000
H       -0.11080000       1.72750000      -1.25700000
H       -1.00390000       1.78010000       0.26760000
H       -0.64010000      -0.62700000      -0.54020000
H        1.64760000      -1.59200000      -0.60630000
H        2.36610000      -0.00220000      -0.07240000
H        1.60450000       1.07950000       2.05890000
H        0.25220000       0.45000000       3.01050000
H        1.81550000      -0.37700000       3.02470000
H        0.67130000      -2.93760000       3.47530000
H        0.82420000      -3.98520000       2.07360000
H        2.01510000      -2.68390000       2.34510000
H       -2.37300000      -3.64240000       1.27600000
