16
Properties=species:S:1:pos:R:3 gdb_82016=T pbc="F F F"
N       -0.07440000       1.45930000       0.19980000
C       -0.02960000       0.04200000       0.02340000
C       -1.37980000      -0.66480000      -0.04220000
O       -2.02560000      -0.22050000      -1.25330000
C       -1.08930000      -1.29650000      -1.33630000
C        0.30050000      -0.60920000      -1.44370000
N        0.51620000       0.36940000      -2.49000000
C        1.40100000      -1.55780000      -1.37580000
N        2.25560000      -2.33360000      -1.30130000
H        0.83330000       1.87840000       0.02710000
H       -0.73130000       1.87690000      -0.45110000
H        0.63010000      -0.41360000       0.76610000
H       -2.02420000      -0.98280000       0.76760000
H       -1.42500000      -2.23370000      -1.76480000
H        0.81830000      -0.07760000      -3.35030000
H       -0.37030000       0.82970000      -2.67810000
