24
Properties=species:S:1:pos:R:3 gdb_60404=T pbc="F F F"
C       -0.23330000       1.59550000       0.13040000
C       -0.03260000       0.09140000      -0.05660000
O        0.70170000      -0.18550000      -1.25030000
C        0.61600000      -0.56540000       1.16730000
C        0.77110000      -2.08060000       1.02390000
N        1.49320000      -2.62130000       2.16970000
C        0.71240000      -3.12440000       3.29650000
C        1.48630000      -4.06160000       2.43180000
C        0.79350000      -5.06830000       1.53840000
H        0.72620000       2.09420000       0.31700000
H       -0.67740000       2.03410000      -0.76730000
H       -0.88750000       1.80630000       0.98260000
H       -1.00990000      -0.37660000      -0.23420000
H        1.56980000       0.22320000      -1.15610000
H        1.60620000      -0.12180000       1.34050000
H        0.01730000      -0.33890000       2.05890000
H       -0.22680000      -2.53090000       0.88630000
H        1.34570000      -2.29640000       0.11750000
H        1.06120000      -2.85030000       4.28910000
H       -0.37310000      -3.14670000       3.19000000
H        2.44510000      -4.41240000       2.81360000
H       -0.20390000      -4.74290000       1.23440000
H        1.37830000      -5.26080000       0.63190000
H        0.68440000      -6.02080000       2.06790000
