19
Properties=species:S:1:pos:R:3 gdb_57260=T pbc="F F F"
C       -0.28040000       1.50780000      -0.19710000
C        0.01890000       0.00700000      -0.00480000
N        0.73470000      -0.17310000       1.26500000
C       -1.27710000      -0.69470000       0.13300000
N       -2.28300000      -1.24790000       0.25990000
C        0.77700000      -0.55200000      -1.23920000
C        2.16680000       0.00640000      -1.47360000
C        0.44030000      -1.87680000      -1.78680000
O       -0.02460000      -0.67330000      -2.41420000
H        0.65140000       2.08000000      -0.21580000
H       -0.81070000       1.66900000      -1.13760000
H       -0.89010000       1.87220000       0.63140000
H        1.01870000      -1.14120000       1.38270000
H        1.57390000       0.39730000       1.27090000
H        2.83780000      -0.22050000      -0.63970000
H        2.58690000      -0.43570000      -2.37930000
H        2.14590000       1.09120000      -1.61180000
H        1.20070000      -2.42330000      -2.34300000
H       -0.33470000      -2.48540000      -1.32800000
