21
Properties=species:S:1:pos:R:3 gdb_93044=T pbc="F F F"
C       -0.08700000       1.57360000      -0.03690000
C        0.02970000       0.04530000      -0.02970000
C        0.67740000      -0.48750000      -1.32140000
C        1.01610000      -1.95310000      -1.25100000
C        1.23050000      -2.61030000      -0.11110000
C        1.19010000      -1.94740000       1.23210000
O        2.52580000      -1.56470000       1.69130000
C        2.24270000      -0.16910000       1.46710000
C        0.74560000      -0.46480000       1.22070000
H        0.90220000       2.04580000      -0.04890000
H       -0.63140000       1.92480000      -0.91980000
H       -0.61810000       1.93540000       0.84980000
H       -0.98640000      -0.37320000       0.00710000
H        0.00830000      -0.29600000      -2.16920000
H        1.59270000       0.08240000      -1.54390000
H        1.10610000      -2.48080000      -2.19810000
H        1.49640000      -3.66430000      -0.12870000
H        0.71080000      -2.59210000       1.97830000
H        2.48520000       0.44390000       2.34240000
H        2.79050000       0.22520000       0.59950000
H        0.15240000      -0.22150000       2.10660000
