15
Properties=species:S:1:pos:R:3 gdb_13323=T pbc="F F F"
O        0.13590000      -0.18420000       0.04640000
C        0.05050000       0.99820000      -0.15480000
C        1.24930000       1.93350000      -0.14780000
C        1.18660000       2.96400000      -1.22900000
N        0.31500000       3.02230000      -2.15040000
C        0.65540000       4.19170000      -2.97500000
C        1.94020000       4.76870000      -2.32380000
O        2.17150000       3.90040000      -1.18850000
H       -0.92310000       1.49530000      -0.33640000
H        1.28230000       2.44770000       0.82370000
H        2.17000000       1.34650000      -0.22140000
H        0.81330000       3.88280000      -4.01310000
H       -0.17530000       4.90500000      -2.97080000
H        2.81880000       4.72250000      -2.97290000
H        1.82560000       5.79060000      -1.95330000
