20
Properties=species:S:1:pos:R:3 gdb_61554=T pbc="F F F"
C        0.70320000       1.91670000       0.40200000
C        0.04730000       0.65230000      -0.16010000
C        0.69360000       0.20810000      -1.50360000
C       -0.30450000      -0.31340000      -2.51710000
C       -0.08060000      -1.56270000      -3.28430000
N       -1.01020000      -1.55650000      -2.13910000
H       -0.60620000      -1.71770000      -0.44560000
H       -1.97670000      -1.55140000      -2.44840000
C        0.06430000      -0.46910000       0.90050000
O       -0.33640000      -1.68350000       0.50870000
O        0.41420000      -0.27090000       2.03690000
H        1.77190000       1.75660000       0.57360000
H        0.58670000       2.75070000      -0.29780000
H        0.25880000       2.18960000       1.36000000
H       -1.01380000       0.86910000      -0.35310000
H        1.21300000       1.06300000      -1.95000000
H        1.45950000      -0.55260000      -1.31700000
H       -0.91460000       0.45000000      -2.99600000
H       -0.50830000      -1.65250000      -4.27810000
H        0.83050000      -2.13160000      -3.12660000
