17
Properties=species:S:1:pos:R:3 gdb_90585=T pbc="F F F"
C        0.19950000       1.19930000       0.29720000
N        0.00480000       0.10890000      -0.64070000
C       -1.17820000      -0.82160000      -0.59240000
C       -0.22630000      -1.97000000      -1.06800000
C        0.83990000      -0.99870000      -0.68370000
N        1.92130000      -1.37730000      -0.12450000
C        1.85000000      -2.85310000      -0.15720000
C        0.33020000      -3.20210000      -0.31990000
O       -0.23020000      -4.18900000       0.05870000
H        1.16440000       1.67110000       0.09830000
H       -0.58650000       1.94630000       0.15990000
H        0.19360000       0.85530000       1.34260000
H       -1.55410000      -0.95960000       0.42820000
H       -1.99230000      -0.54720000      -1.26590000
H       -0.33690000      -2.20910000      -2.12860000
H        2.41830000      -3.29630000      -0.98760000
H        2.24400000      -3.28030000       0.76970000
