19
Properties=species:S:1:pos:R:3 gdb_68010=T pbc="F F F"
C       -0.12730000       1.50140000       0.01310000
C        0.08250000       0.01620000       0.03600000
C        1.02310000      -0.77830000      -0.90310000
C        0.69530000      -1.92650000       0.12000000
C        1.44780000      -3.22590000       0.23100000
C        0.68550000      -0.79350000       1.21030000
C       -0.81150000      -2.00080000      -0.12120000
O       -1.54890000      -2.93250000      -0.24570000
O       -1.19590000      -0.68610000      -0.17320000
H        0.82410000       2.01800000       0.16890000
H       -0.54160000       1.81780000      -0.94860000
H       -0.82140000       1.80520000       0.80220000
H        0.70810000      -0.90170000      -1.94220000
H        2.06520000      -0.45550000      -0.84400000
H        2.51440000      -3.05290000       0.40210000
H        1.05920000      -3.82830000       1.05790000
H        1.33670000      -3.81630000      -0.68380000
H        1.69340000      -0.47220000       1.48340000
H        0.06270000      -0.93060000       2.09780000
