20
Properties=species:S:1:pos:R:3 gdb_97767=T pbc="F F F"
C       -0.11060000       1.45000000      -0.17670000
N       -0.00300000       0.03810000       0.11150000
C       -1.19470000      -0.67060000       0.60980000
C       -0.25820000      -1.52830000       1.51390000
C        0.77420000      -0.38160000       1.29110000
C       -0.67320000      -1.85770000       2.85900000
C       -1.01110000      -2.11460000       3.98780000
C       -1.44540000      -2.47960000       5.33540000
O       -1.22890000      -3.84850000       5.65240000
H        0.87160000       1.84850000      -0.45240000
H       -0.78490000       1.60530000      -1.02580000
H       -0.49320000       2.04030000       0.67810000
H       -1.85950000      -0.03610000       1.21850000
H       -1.78640000      -1.18840000      -0.15180000
H        0.05960000      -2.42810000       0.97950000
H        1.81390000      -0.66090000       1.09400000
H        0.74250000       0.34550000       2.11870000
H       -0.88040000      -1.91000000       6.08200000
H       -2.50460000      -2.20290000       5.46340000
H       -1.60500000      -4.37070000       4.93630000
