20
Properties=species:S:1:pos:R:3 gdb_111467=T pbc="F F F"
C       -0.14460000       1.48640000       0.20230000
C       -0.11290000      -0.03210000       0.00320000
C        0.62350000      -0.48380000      -1.26900000
C        0.88870000      -1.97350000      -1.36380000
N       -0.34300000      -2.75430000      -1.60870000
C        0.57690000      -2.47260000      -2.73080000
C        0.08830000      -1.32670000      -3.58480000
C       -0.12500000      -0.17500000      -2.58600000
O       -0.77560000       0.81270000      -2.80990000
H        0.87010000       1.89460000       0.27990000
H       -0.64290000       1.97780000      -0.63490000
H       -0.67550000       1.74400000       1.12430000
H        0.37910000      -0.50390000       0.86360000
H       -1.13080000      -0.43470000      -0.02650000
H        1.58820000       0.04530000      -1.33220000
H        1.68040000      -2.41590000      -0.76750000
H       -0.21240000      -3.71020000      -1.28830000
H        1.13520000      -3.29030000      -3.17380000
H        0.84590000      -1.01860000      -4.31720000
H       -0.83820000      -1.53100000      -4.12720000
