16
Properties=species:S:1:pos:R:3 gdb_33771=T pbc="F F F"
N        0.00520000      -1.16500000      -0.05610000
C       -0.00130000      -0.01050000      -0.01270000
C       -0.05110000       1.44700000       0.04820000
C       -0.26810000       2.12230000       1.42920000
C        0.72690000       3.14070000       0.82500000
O        1.26180000       2.06850000      -0.02700000
C       -0.02190000       4.11620000      -0.05790000
C       -0.83280000       3.57510000      -0.96620000
C       -0.94780000       2.06690000      -1.04720000
H       -1.27070000       2.46200000       1.68930000
H        0.17400000       1.52640000       2.22770000
H        1.49870000       3.58220000       1.45500000
H        0.10660000       5.18560000       0.06440000
H       -1.41160000       4.17080000      -1.66480000
H       -0.62340000       1.70370000      -2.02970000
H       -1.98650000       1.73820000      -0.91690000
