20
Properties=species:S:1:pos:R:3 gdb_76174=T pbc="F F F"
C       -0.08950000       1.51880000       0.07220000
C        0.02820000       0.01490000      -0.02910000
C        0.67820000      -0.70180000      -1.19380000
C        0.05470000      -1.98080000      -1.71400000
N        1.34660000       0.14220000      -2.15690000
C        1.37130000      -0.67500000       0.19740000
N        2.54560000       0.14890000       0.40820000
C        1.36960000      -1.88670000       0.97480000
N        1.37670000      -2.86970000       1.58620000
H        0.77290000       2.02950000      -0.35740000
H       -0.98820000       1.86860000      -0.44800000
H       -0.17020000       1.82310000       1.11990000
H       -0.81800000      -0.52260000       0.39070000
H       -0.75430000      -1.75210000      -2.41820000
H        0.79760000      -2.59150000      -2.24110000
H       -0.35920000      -2.59140000      -0.90770000
H        1.88330000      -0.42230000      -2.80860000
H        0.67420000       0.67190000      -2.70330000
H        3.35170000      -0.45210000       0.55250000
H        2.70850000       0.65510000      -0.46180000
