18
Properties=species:S:1:pos:R:3 gdb_88653=T pbc="F F F"
O       -0.20520000       1.44960000       0.48930000
C       -0.03170000       0.10330000       0.13210000
C       -0.50950000      -0.98630000       1.06100000
C       -1.26750000      -0.67480000      -0.21330000
C       -2.64130000      -0.03880000      -0.18300000
C       -3.83800000      -0.94740000       0.24440000
C       -4.04090000       0.06210000       1.40310000
O       -4.81070000       0.19230000       2.31670000
N       -2.96160000       0.79600000       0.97670000
H        0.44290000       1.65980000       1.16990000
H        0.86310000      -0.08830000      -0.45930000
H        0.05690000      -1.90830000       1.12900000
H       -0.97090000      -0.65820000       1.98650000
H       -1.15640000      -1.38190000      -1.03160000
H       -2.81970000       0.48050000      -1.13260000
H       -4.66990000      -1.00670000      -0.45920000
H       -3.55580000      -1.94870000       0.57510000
H       -2.50850000       1.63070000       1.31530000
