17
Properties=species:S:1:pos:R:3 gdb_125309=T pbc="F F F"
C       -0.02160000       1.52070000       0.00400000
C       -0.00800000       0.02650000       0.01390000
C       -0.02460000      -0.81500000      -1.03930000
C       -0.00110000      -2.26170000      -0.59100000
N        0.03070000      -2.09180000       0.84870000
N        0.06190000      -2.96090000       1.86630000
C        0.08050000      -2.16640000       2.94400000
C        0.05920000      -0.79030000       2.61330000
C        0.02760000      -0.78700000       1.22880000
H        0.86890000       1.92430000       0.49980000
H       -0.05310000       1.91080000      -1.01610000
H       -0.89050000       1.90860000       0.54820000
H       -0.05150000      -0.53200000      -2.08280000
H       -0.88960000      -2.82210000      -0.90640000
H        0.88190000      -2.80600000      -0.94750000
H        0.10780000      -2.61170000       3.92800000
H        0.06670000       0.05250000       3.28400000
