18
Properties=species:S:1:pos:R:3 gdb_25702=T pbc="F F F"
C        0.08420000       1.40800000      -0.62360000
C        0.03120000       0.00450000      -0.23650000
C        0.00800000      -1.15020000       0.10570000
C       -0.04370000      -2.56260000       0.48300000
C       -1.41080000      -3.17720000       0.32750000
C       -1.98440000      -4.27300000       0.93460000
C       -3.27980000      -4.44740000       0.37080000
C       -3.45890000      -3.45170000      -0.56070000
N       -2.31570000      -2.69330000      -0.58140000
H        0.86920000       1.93860000      -0.07370000
H        0.29560000       1.52200000      -1.69260000
H       -0.86400000       1.91610000      -0.41620000
H        0.69430000      -3.11440000      -0.11870000
H        0.27890000      -2.68190000       1.52450000
H       -1.52180000      -4.88300000       1.69610000
H       -3.99680000      -5.21320000       0.62440000
H       -4.29610000      -3.21290000      -1.19650000
H       -2.16330000      -1.85660000      -1.11940000
