17
Properties=species:S:1:pos:R:3 gdb_14983=T pbc="F F F"
O       -0.05790000       1.43650000      -0.00300000
C        0.01350000       0.01850000       0.03080000
C       -1.40770000      -0.52890000       0.01020000
C       -2.14380000      -0.12420000      -1.26470000
O       -3.46580000      -0.68250000      -1.30500000
C       -3.59610000      -1.92720000      -0.78950000
N       -2.75590000      -2.63490000      -0.16340000
C       -1.44440000      -2.05910000       0.12020000
H        0.83740000       1.78700000      -0.00940000
H        0.57160000      -0.37270000      -0.83660000
H        0.52860000      -0.33630000       0.93760000
H       -1.94850000      -0.09960000       0.86290000
H       -2.26580000       0.95660000      -1.33670000
H       -1.59300000      -0.47280000      -2.15000000
H       -4.60130000      -2.29960000      -0.98000000
H       -0.71070000      -2.50930000      -0.56470000
H       -1.15020000      -2.37620000       1.12750000
