21
Properties=species:S:1:pos:R:3 gdb_122432=T pbc="F F F"
O        0.03830000       1.26300000      -0.66930000
C       -0.08610000       0.02730000       0.00620000
C       -1.54120000      -0.40350000       0.10690000
O       -2.02430000      -0.51300000      -1.22290000
C       -3.39550000      -0.80530000      -1.31500000
C       -4.42460000       0.32130000      -1.00680000
C       -5.21370000      -0.15130000      -2.25980000
O       -5.85950000       0.78640000      -3.07940000
C       -3.92940000      -0.86890000      -2.75920000
H       -0.47370000       1.16510000      -1.48060000
H        0.48810000      -0.76700000      -0.49700000
H        0.33120000       0.16110000       1.00960000
H       -1.63000000      -1.36660000       0.63560000
H       -2.11760000       0.35110000       0.66290000
H       -3.62380000      -1.72070000      -0.74950000
H       -4.93590000       0.33550000      -0.04230000
H       -3.96290000       1.29860000      -1.18870000
H       -5.98580000      -0.87560000      -1.98530000
H       -5.21160000       1.44780000      -3.34450000
H       -3.33580000      -0.20050000      -3.39280000
H       -4.02000000      -1.84110000      -3.24680000
