19
Properties=species:S:1:pos:R:3 gdb_105925=T pbc="F F F"
C        0.00690000       1.29180000       0.23150000
O       -0.11510000      -0.04540000      -0.22690000
C       -1.38410000      -0.55400000      -0.12490000
C       -2.02300000      -1.02350000       1.19400000
C       -1.75770000      -1.99540000       0.04910000
C       -3.16810000      -1.59870000      -0.48100000
C       -3.51930000      -0.83480000       0.85480000
C       -3.64720000       0.49290000       0.06460000
C       -2.65840000      -0.17090000      -0.92640000
H        1.05900000       1.56730000       0.13200000
H       -0.59940000       1.98320000      -0.36980000
H       -0.29610000       1.38400000       1.28360000
H       -1.50800000      -0.94650000       2.14260000
H       -1.16730000      -2.90050000       0.00820000
H       -3.85830000      -2.20890000      -1.05760000
H       -4.27120000      -1.16850000       1.56970000
H       -4.64450000       0.60320000      -0.37370000
H       -3.35380000       1.42680000       0.55580000
H       -2.54860000       0.13450000      -1.96640000
