15
Properties=species:S:1:pos:R:3 gdb_27566=T pbc="F F F"
C       -0.00470000       1.52410000       0.01290000
C       -0.00450000       0.01790000      -0.00480000
C        0.05400000      -0.70030000      -1.19660000
C        0.05150000      -2.09710000      -1.15770000
C       -0.01040000      -2.73130000       0.09240000
N       -0.06660000      -2.06130000       1.23760000
C       -0.06310000      -0.72690000       1.17730000
C        0.11040000      -2.86930000      -2.35850000
N        0.15800000      -3.49770000      -3.32960000
H        0.90120000       1.92670000      -0.45260000
H       -0.85970000       1.92740000      -0.54000000
H       -0.05520000       1.90630000       1.03540000
H        0.10140000      -0.18780000      -2.15190000
H       -0.01380000      -3.81590000       0.15070000
H       -0.11000000      -0.20920000       2.13340000
