18
Properties=species:S:1:pos:R:3 gdb_69677=T pbc="F F F"
C        0.21140000       1.56970000       0.06430000
C       -0.05960000       0.09590000       0.01530000
C       -0.90350000      -0.63580000       0.98170000
N        0.56360000      -0.86130000       1.00540000
C        0.99130000      -1.70720000      -0.16650000
C       -0.01750000      -2.19630000      -1.19840000
C       -1.33270000      -2.76120000      -1.06280000
C       -2.40660000      -3.30480000      -1.04000000
C        0.43090000      -0.74650000      -1.18480000
H        1.23150000       1.79350000      -0.26710000
H       -0.48300000       2.11360000      -0.58720000
H        0.09500000       1.94880000       1.08330000
H       -1.22440000      -0.07250000       1.85450000
H       -1.57650000      -1.42740000       0.68570000
H        1.96480000      -2.17600000      -0.09220000
H        0.54510000      -2.72260000      -1.97110000
H       -3.36220000      -3.76530000      -0.99340000
H        0.90470000      -0.29720000      -2.04870000
