16
Properties=species:S:1:pos:R:3 gdb_36580=T pbc="F F F"
C        0.04670000      -1.25800000       0.28420000
C       -0.00230000      -0.05900000       0.21490000
C       -0.11200000       1.37820000       0.11040000
C       -1.38580000       1.90200000      -0.53000000
C       -1.47560000       1.48000000      -2.01130000
C       -2.69010000       1.97240000      -2.65410000
N       -3.65750000       2.37010000      -3.14530000
C        0.65360000       2.23230000       1.04180000
O        1.08760000       2.06250000      -0.30360000
H        0.10480000      -2.31670000       0.35340000
H       -2.25450000       1.52420000       0.01800000
H       -1.39360000       2.99280000      -0.45890000
H       -0.60450000       1.86330000      -2.55340000
H       -1.44940000       0.38790000      -2.09200000
H        0.26310000       3.21770000       1.29260000
H        1.27810000       1.76310000       1.79910000
