13
Properties=species:S:1:pos:R:3 gdb_81883=T pbc="F F F"
O       -0.11250000       1.45850000       0.22860000
C        0.02190000       0.09370000      -0.01950000
C       -1.28180000      -0.70790000       0.03070000
O       -2.08440000      -0.30620000      -1.04890000
C       -1.07290000      -1.29180000      -1.34590000
C       -1.47300000      -2.62860000      -1.85990000
O       -2.58770000      -3.07370000      -1.77580000
C        0.20500000      -0.46180000      -1.47840000
O        1.06440000      -0.36110000      -2.30010000
H        0.69810000       1.89820000      -0.05080000
H        0.79640000      -0.38470000       0.60590000
H       -1.75760000      -1.19970000       0.87090000
H       -0.63870000      -3.19690000      -2.32120000
