20
Properties=species:S:1:pos:R:3 gdb_76690=T pbc="F F F"
O        0.16280000       1.30680000       0.72620000
C        0.10970000      -0.02250000       0.25930000
C       -0.91310000      -0.90390000       0.93770000
O       -1.63210000      -0.33800000       1.99370000
C       -1.14210000      -0.41550000      -0.48470000
C       -2.22960000       0.58520000      -0.80650000
N       -3.44370000      -0.11670000      -1.22080000
C       -4.31630000      -0.55900000      -0.13240000
C       -4.69530000       0.59770000      -0.98910000
H        0.87150000       1.35980000       1.37710000
H        1.06450000      -0.42670000      -0.07030000
H       -0.70340000      -1.95510000       1.10870000
H       -1.32090000       0.57550000       2.06750000
H       -0.99560000      -1.15780000      -1.26440000
H       -2.40640000       1.24420000       0.05750000
H       -1.91290000       1.22630000      -1.63790000
H       -4.79250000      -1.52450000      -0.27930000
H       -3.99000000      -0.35630000       0.88470000
H       -4.64130000       1.58950000      -0.54230000
H       -5.45110000       0.49030000      -1.76220000
