17
Properties=species:S:1:pos:R:3 gdb_55554=T pbc="F F F"
N       -0.19700000       1.35410000       0.39170000
C        0.09100000       0.10980000      -0.15620000
O        1.13940000      -0.16200000      -0.68090000
N       -1.02280000      -0.75120000      -0.08030000
C       -1.04380000      -2.12000000      -0.36130000
O       -0.05550000      -2.77960000      -0.57910000
C       -2.42180000      -2.70510000      -0.34430000
C       -2.67830000      -3.85960000      -1.29790000
C       -2.54930000      -4.13140000       0.16300000
H        0.62150000       1.94000000       0.46530000
H       -0.80430000       1.39180000       1.19680000
H       -1.91170000      -0.31790000       0.11480000
H       -3.25000000      -2.03140000      -0.14840000
H       -3.65780000      -3.91150000      -1.75880000
H       -1.84350000      -4.13500000      -1.93130000
H       -1.62820000      -4.58900000       0.50410000
H       -3.43760000      -4.37660000       0.73360000
