15
Properties=species:S:1:pos:R:3 gdb_15293=T pbc="F F F"
O       -0.93300000       1.08730000      -0.55300000
C       -0.27750000       1.81860000       0.15020000
C        1.21010000       1.77560000       0.18460000
C        1.96490000       3.06840000       0.36620000
N        1.99860000       2.06100000       1.39340000
C        1.38340000       2.28380000       2.71390000
C        0.50420000       3.44240000       2.88450000
C       -0.18440000       4.41720000       3.03430000
H       -0.75390000       2.57300000       0.80830000
H        1.63160000       0.99660000      -0.44590000
H        2.88490000       3.21960000      -0.19200000
H        1.37180000       3.96440000       0.54210000
H        0.85340000       1.36610000       2.99270000
H        2.21670000       2.38430000       3.42040000
H       -0.80630000       5.26750000       3.17240000
