17
Properties=species:S:1:pos:R:3 gdb_38557=T pbc="F F F"
C       -0.01870000       1.47320000      -0.14650000
C        1.29750000       0.75090000       0.05930000
O        2.19130000       0.29300000      -0.93660000
C        1.55840000      -0.82250000      -1.52280000
C        0.87670000      -2.03190000      -0.77540000
C        0.56830000      -2.13820000       0.69880000
C       -0.05630000      -1.04140000       1.14630000
C        0.01010000      -0.02960000       0.03020000
C        0.10130000      -0.83270000      -1.27740000
H       -0.33390000       2.11910000       0.66820000
H       -0.30750000       1.82320000      -1.13290000
H        1.79320000       0.90560000       1.01110000
H        2.00540000      -1.06830000      -2.47990000
H        0.91030000      -2.94490000      -1.36260000
H        0.80970000      -3.01740000       1.28260000
H       -0.35980000      -0.83200000       2.16400000
H       -0.69640000      -0.83110000      -2.01500000
