16
Properties=species:S:1:pos:R:3 gdb_35226=T pbc="F F F"
N        0.04180000      -1.16220000      -0.15200000
C        0.02840000      -0.00650000      -0.11840000
C        0.02760000       1.43960000      -0.11340000
O        0.36760000       2.08270000       1.11470000
C        1.30340000       2.19250000       0.03260000
C        2.67990000       1.53930000       0.18140000
C        3.65600000       2.48880000      -0.56320000
C        2.80390000       3.68170000      -0.92310000
C        1.52090000       3.51650000      -0.60210000
H       -0.79960000       1.88850000      -0.66140000
H        2.91650000       1.47700000       1.24680000
H        2.69620000       0.52130000      -0.21360000
H        4.51610000       2.77390000       0.05300000
H        4.07000000       2.02070000      -1.46470000
H        3.21460000       4.56180000      -1.40520000
H        0.71370000       4.22010000      -0.76380000
