19
Properties=species:S:1:pos:R:3 gdb_5970=T pbc="F F F"
C        0.05390000       1.56520000      -0.12350000
C       -0.00990000       0.05360000       0.02230000
O        0.63410000      -0.50480000      -1.11590000
C        0.70330000      -1.92550000      -1.20880000
C        1.53130000      -2.55010000      -0.06820000
C       -0.69030000      -2.57650000      -1.31460000
C        1.42130000      -2.16110000      -2.48350000
N        1.97730000      -2.38890000      -3.46970000
H        1.09290000       1.90190000      -0.17250000
H       -0.45280000       1.88360000      -1.03850000
H       -0.43040000       2.04770000       0.73070000
H        0.49100000      -0.25940000       0.94940000
H       -1.05640000      -0.27760000       0.08280000
H        0.99710000      -2.47060000       0.88190000
H        1.71090000      -3.60950000      -0.26770000
H        2.49430000      -2.04200000       0.01930000
H       -1.27560000      -2.08700000      -2.09630000
H       -0.59460000      -3.63700000      -1.56050000
H       -1.22430000      -2.49620000      -0.36450000
