21
Properties=species:S:1:pos:R:3 gdb_120288=T pbc="F F F"
C       -0.18950000       1.34970000       0.07330000
O       -0.20780000      -0.04860000       0.21230000
C        0.84300000      -0.52930000       1.03090000
C        0.77240000      -2.03050000       1.05720000
C        1.40860000      -2.89110000       2.12170000
C        1.78510000      -2.28170000       3.47620000
C        0.45770000      -1.82520000       4.04740000
C       -0.56590000      -2.14940000       3.25290000
C       -0.11120000      -2.82900000       2.00770000
H        0.74480000       1.70510000      -0.39200000
H       -1.02910000       1.62760000      -0.56900000
H       -0.30070000       1.86200000       1.04290000
H        1.81740000      -0.21050000       0.61920000
H        0.76240000      -0.10430000       2.04230000
H        0.82590000      -2.45800000       0.05880000
H        1.95570000      -3.76530000       1.78840000
H        2.26320000      -3.02960000       4.12280000
H        2.50350000      -1.45550000       3.38850000
H        0.38210000      -1.27940000       4.98140000
H       -1.60860000      -1.92890000       3.45120000
H       -0.70020000      -3.63770000       1.58880000
