12
Properties=species:S:1:pos:R:3 gdb_20748=T pbc="F F F"
C       -0.00110000       1.51420000      -0.02800000
C       -0.00110000       0.02130000       0.03550000
N       -0.08020000      -0.69270000      -1.06610000
O       -0.05740000      -2.02160000      -0.68360000
C        0.03650000      -2.07700000       0.66200000
C        0.07680000      -0.82020000       1.18260000
C        0.07520000      -3.35470000       1.27120000
N        0.10830000      -4.38940000       1.78820000
H        0.91630000       1.92210000       0.40750000
H       -0.07360000       1.84300000      -1.06600000
H       -0.84560000       1.92740000       0.53220000
H        0.15020000      -0.54010000       2.22000000
