17
Properties=species:S:1:pos:R:3 gdb_53152=T pbc="F F F"
C        0.06190000       1.51820000      -0.04930000
C        0.04010000       0.06390000       0.01230000
C        0.02170000      -1.14000000       0.06330000
C        0.04600000      -2.58810000       0.08640000
C       -0.08670000      -3.32420000       1.48290000
C       -1.59850000      -2.90790000       1.45520000
C       -1.32830000      -3.36890000      -0.01930000
C       -0.55990000      -4.52190000       0.64470000
O       -0.43070000      -5.70340000       0.57310000
H        0.81510000       1.87190000      -0.76190000
H       -0.90750000       1.91840000      -0.36620000
H        0.29880000       1.95520000       0.92710000
H        0.83950000      -2.97610000      -0.55800000
H        0.61080000      -3.27720000       2.31570000
H       -2.29350000      -3.50450000       2.04740000
H       -1.76970000      -1.83720000       1.56490000
H       -2.01570000      -3.37180000      -0.86180000
