12
Properties=species:S:1:pos:R:3 gdb_129530=T pbc="F F F"
N       -0.12570000       1.31180000       0.10900000
C       -0.01660000       0.02010000      -0.26700000
O        0.77500000      -0.47310000      -1.01540000
O       -1.05530000      -0.69920000       0.35490000
C       -1.04850000      -2.03330000       0.21260000
C       -1.97230000      -2.87060000      -0.33070000
N       -1.51160000      -4.14040000      -0.10240000
N       -0.41700000      -4.12690000       0.51380000
O       -0.06800000      -2.73820000       0.75280000
H        0.58520000       1.95140000      -0.19840000
H       -0.76820000       1.58670000       0.83070000
H       -2.89180000      -2.65990000      -0.84640000
