18
Properties=species:S:1:pos:R:3 gdb_17059=T pbc="F F F"
C       -0.18280000       1.53480000       0.01400000
C        0.15200000       0.04220000      -0.09100000
C        0.81990000      -0.49580000       1.16310000
C       -0.05350000      -0.84290000       2.40370000
O       -0.59880000      -2.01500000       1.68600000
C        0.85670000      -2.03220000       1.40560000
C        1.07520000      -1.79640000       2.91530000
O        2.32600000      -1.31290000       3.31370000
H        0.71570000       2.13380000       0.20070000
H       -0.64190000       1.90260000      -0.90870000
H       -0.88460000       1.72800000       0.83270000
H       -0.75560000      -0.53650000      -0.28590000
H        0.82330000      -0.11990000      -0.94440000
H        1.75350000       0.02040000       1.40190000
H       -0.75970000      -0.22680000       2.96270000
H        1.23650000      -2.83170000       0.76820000
H        0.69620000      -2.61130000       3.54090000
H        2.29510000      -1.13430000       4.25850000
