14
Properties=species:S:1:pos:R:3 gdb_65892=T pbc="F F F"
O       -0.00460000       1.45210000      -0.08340000
C        0.00850000       0.04600000      -0.00030000
C        0.14080000      -0.57010000       1.43120000
O       -1.17670000      -1.13540000       1.35630000
C       -1.43390000      -0.52220000       0.08300000
C        0.87550000      -0.54940000      -1.00490000
C        1.62860000      -1.01700000      -1.82690000
C        2.47320000      -1.55140000      -2.75690000
N        3.19430000      -2.00410000      -3.54710000
H        0.90310000       1.76980000      -0.15150000
H        0.91470000      -1.33200000       1.56870000
H        0.22670000       0.20790000       2.19940000
H       -2.17210000       0.28580000       0.13960000
H       -1.71900000      -1.24850000      -0.68350000
