27
Properties=species:S:1:pos:R:3 gdb_57420=T pbc="F F F"
C        0.62650000       2.22440000      -0.77330000
C       -0.03170000       0.85070000      -0.55270000
C        0.16140000       0.43170000       0.91880000
C       -1.54220000       0.99520000      -0.84160000
C        0.48580000      -0.28450000      -1.44950000
C        0.93020000      -0.15380000      -2.88940000
C        1.90060000      -0.67230000      -1.84720000
C        3.12480000       0.16230000      -1.51150000
C        2.19970000      -2.16330000      -1.85490000
H        1.66370000       2.24790000      -0.43280000
H        0.60120000       2.52700000      -1.82480000
H        0.08270000       2.98600000      -0.20360000
H       -0.26730000       1.17560000       1.60000000
H       -0.32680000      -0.52760000       1.12310000
H        1.22340000       0.32450000       1.16210000
H       -1.71570000       1.29500000      -1.88040000
H       -2.07090000       0.05050000      -0.67370000
H       -1.99420000       1.75160000      -0.19060000
H       -0.12780000      -1.16960000      -1.28180000
H        0.52400000      -0.84080000      -3.62570000
H        1.11480000       0.84270000      -3.27830000
H        2.97340000       1.22710000      -1.68980000
H        3.43010000       0.03260000      -0.46600000
H        3.96930000      -0.15370000      -2.13600000
H        2.98970000      -2.40080000      -2.57800000
H        2.54120000      -2.50450000      -0.86990000
H        1.31600000      -2.75070000      -2.12260000
