17
Properties=species:S:1:pos:R:3 gdb_49253=T pbc="F F F"
O       -0.92170000       1.08650000       0.02190000
C        0.22490000       0.90030000       0.35260000
C        1.37770000       1.75640000      -0.11040000
N        2.50420000       1.38770000       0.37160000
C        3.78600000       1.97020000       0.07990000
C        3.98060000       3.20970000      -0.74460000
C        3.10750000       4.00100000      -1.36030000
C        1.61710000       3.92880000      -1.43550000
N        0.96420000       2.72230000      -0.97650000
H        0.54410000       0.08520000       1.02710000
H        4.28610000       2.14210000       1.04710000
H        4.39600000       1.17150000      -0.37540000
H        5.03220000       3.48500000      -0.82450000
H        3.49810000       4.86940000      -1.88690000
H        1.21390000       4.79890000      -0.88780000
H        1.32210000       4.08840000      -2.48280000
H       -0.04310000       2.70450000      -1.08640000
