19
Properties=species:S:1:pos:R:3 gdb_112076=T pbc="F F F"
C        0.16810000       1.19630000      -0.37980000
O        0.01240000      -0.18410000      -0.14120000
C       -1.32370000      -0.57620000       0.17330000
C       -2.21880000      -0.63130000      -1.04620000
C       -2.45000000      -1.88300000      -1.43480000
C       -1.80210000      -2.90040000      -0.53080000
C       -1.30760000      -2.05270000       0.67230000
C        0.05520000      -2.48130000       1.18150000
O        0.29810000      -2.73870000       2.33240000
H        1.23740000       1.38250000      -0.50490000
H       -0.35300000       1.52490000      -1.29070000
H       -0.20040000       1.79680000       0.46650000
H       -1.70680000       0.09840000       0.95410000
H       -2.57400000       0.25920000      -1.55150000
H       -3.02170000      -2.17150000      -2.31060000
H       -2.49290000      -3.68690000      -0.20940000
H       -0.97530000      -3.41020000      -1.04710000
H       -2.00860000      -2.14320000       1.50510000
H        0.83280000      -2.56570000       0.39340000
