16
Properties=species:S:1:pos:R:3 gdb_89343=T pbc="F F F"
O        0.01150000       1.44750000       0.11100000
C        0.01760000       0.04230000       0.05760000
C        0.29260000      -0.60010000       1.44740000
C       -1.06880000      -1.27790000       1.41050000
O       -1.19780000      -2.55420000       1.88440000
C       -2.16770000      -0.29820000       1.22500000
C       -1.35160000      -0.66760000      -0.01540000
C       -1.93650000      -1.23670000      -1.17490000
N       -2.39460000      -1.71550000      -2.12650000
H       -0.22070000       1.78540000      -0.76070000
H        0.69690000      -0.33320000      -0.71590000
H        1.10930000      -1.32260000       1.41240000
H        0.45670000       0.10570000       2.26560000
H       -2.13010000      -2.78340000       1.95990000
H       -3.17050000      -0.71700000       1.22480000
H       -2.10010000       0.71820000       1.60480000
