21
Properties=species:S:1:pos:R:3 gdb_76897=T pbc="F F F"
C       -0.69460000       1.34680000       0.19910000
C       -0.09930000      -0.04630000       0.03910000
C        0.70260000      -0.41540000      -1.26710000
C        0.88210000       0.62110000      -2.36910000
C        1.95130000      -0.75420000      -0.38910000
O        3.03960000       0.15370000      -0.42050000
C        2.76420000       1.19050000       0.49620000
O        1.87750000       0.68860000       1.47240000
C        1.16260000      -0.39110000       0.89560000
H        0.04320000       2.13780000       0.04460000
H       -1.51070000       1.50550000      -0.51330000
H       -1.10030000       1.47610000       1.20760000
H       -0.88550000      -0.78560000       0.22450000
H        0.30340000      -1.33290000      -1.71200000
H        1.29630000       1.56100000      -1.99650000
H        1.56710000       0.24830000      -3.13720000
H       -0.07450000       0.84440000      -2.85280000
H        2.35630000      -1.76210000      -0.49960000
H        3.69730000       1.49320000       0.98350000
H        2.31950000       2.05750000      -0.02180000
H        1.02480000      -1.14920000       1.66930000
