14
Properties=species:S:1:pos:R:3 gdb_42680=T pbc="F F F"
O        0.01780000      -0.01020000      -0.02640000
C       -0.03080000       1.18750000       0.00630000
C       -1.20720000       2.12490000       0.03930000
C       -0.91110000       3.34500000      -0.89220000
C       -1.65560000       4.19290000       0.13960000
N       -0.82610000       3.26490000       1.04160000
C        0.34310000       3.49980000       0.02810000
C        1.13300000       2.21950000      -0.00120000
O        2.31600000       2.02790000      -0.04350000
H       -2.21280000       1.72160000       0.14010000
H       -0.94310000       3.37200000      -1.98560000
H       -1.38170000       5.24650000       0.23800000
H       -2.73360000       4.04750000       0.24790000
H        0.86440000       4.45070000       0.11780000
