19
Properties=species:S:1:pos:R:3 gdb_128811=T pbc="F F F"
C       -0.15630000       1.46130000      -0.18530000
O       -0.07970000       0.06740000      -0.35470000
C       -1.19390000      -0.60760000       0.19870000
C       -0.99910000      -2.08070000       0.03740000
N       -2.00260000      -2.85350000      -0.36750000
N       -1.48280000      -4.09910000      -0.36520000
C       -0.17780000      -4.14450000       0.01550000
C        0.60180000      -5.41740000       0.07370000
C        0.16890000      -2.83770000       0.29030000
H        0.74250000       1.89520000      -0.63050000
H       -1.04110000       1.88780000      -0.68450000
H       -0.19820000       1.74370000       0.87950000
H       -1.29130000      -0.34380000       1.26730000
H       -2.13130000      -0.30940000      -0.29550000
H       -2.06580000      -4.86810000      -0.64950000
H        0.66400000      -5.90330000      -0.90700000
H        1.62090000      -5.21530000       0.40930000
H        0.15730000      -6.13720000       0.77080000
H        1.13100000      -2.47480000       0.61270000
