18
Properties=species:S:1:pos:R:3 gdb_77122=T pbc="F F F"
O        0.33430000       0.92630000      -0.42390000
C       -0.00660000      -0.36950000      -0.00270000
C       -0.09750000      -0.68430000       1.51700000
C       -1.44270000      -1.45300000       1.24320000
C       -1.48690000      -0.72240000      -0.10310000
C       -2.53040000       0.19310000      -0.60730000
N       -2.26200000      -1.10330000      -1.26990000
C        1.02150000      -1.45790000       2.15030000
O        2.02030000      -1.80680000       1.56890000
H        1.29060000       0.97180000      -0.52110000
H        0.62020000      -1.12960000      -0.48860000
H       -0.29860000       0.22320000       2.09650000
H       -1.29350000      -2.53040000       1.12620000
H       -2.26310000      -1.27600000       1.94000000
H       -3.49110000       0.25450000      -0.10260000
H       -2.19920000       1.10700000      -1.09140000
H       -1.71540000      -0.95450000      -2.11590000
H        0.86840000      -1.71850000       3.22270000
