15
Properties=species:S:1:pos:R:3 gdb_42901=T pbc="F F F"
O       -0.25040000      -0.01220000      -0.06380000
C       -0.16950000       1.17350000       0.02950000
C       -1.14590000       2.34250000      -0.07690000
O       -0.80840000       3.16610000       1.06370000
C        0.00170000       3.28710000      -0.10030000
C        1.05220000       2.17430000       0.05730000
C        2.17030000       2.17550000       1.10820000
C        3.09660000       1.91540000      -0.09780000
O        1.97320000       1.97330000      -1.01530000
H       -2.14750000       2.42500000      -0.48060000
H        0.07820000       4.24560000      -0.59850000
H        2.31260000       3.12680000       1.62240000
H        2.11110000       1.36990000       1.84070000
H        3.83540000       2.69210000      -0.32210000
H        3.58100000       0.93420000      -0.12020000
