19
Properties=species:S:1:pos:R:3 gdb_87224=T pbc="F F F"
C        0.06560000       1.68560000       0.17530000
C       -0.05750000       0.18290000       0.07030000
C        1.14830000      -0.65840000      -0.32190000
C        0.59120000      -0.69730000       1.08930000
O        1.28250000      -0.07690000       2.13190000
O       -1.31130000      -0.30210000      -0.33810000
C       -1.60730000      -0.05480000      -1.70630000
C       -2.80720000      -0.78860000      -2.08600000
C       -3.79460000      -1.38130000      -2.42600000
H        0.98420000       1.94980000       0.70150000
H        0.08130000       2.16410000      -0.80950000
H       -0.78030000       2.08800000       0.74170000
H        0.98620000      -1.52730000      -0.95040000
H        2.09070000      -0.14160000      -0.47160000
H        0.02200000      -1.58440000       1.36370000
H        2.06400000      -0.60540000       2.32400000
H       -1.76300000       1.01960000      -1.88660000
H       -0.76310000      -0.36650000      -2.34160000
H       -4.66830000      -1.90820000      -2.72050000
