17
Properties=species:S:1:pos:R:3 gdb_7568=T pbc="F F F"
C       -0.31570000       1.67190000      -0.20080000
C        0.05330000       0.21330000      -0.01400000
C        1.33640000      -0.33280000      -0.72230000
N        1.59270000      -1.15670000       0.48700000
H        0.03280000      -2.14960000       0.12010000
H        2.56070000      -1.28980000       0.75910000
C        0.78410000      -0.21330000       1.30140000
C       -1.14600000      -0.70980000      -0.28680000
O       -2.23030000      -0.29980000      -0.60710000
O       -0.90780000      -2.02690000      -0.14390000
H        0.54570000       2.31770000      -0.00430000
H       -0.66720000       1.85490000      -1.21950000
H       -1.12820000       1.95500000       0.47330000
H        1.21790000      -0.90180000      -1.64900000
H        2.06940000       0.47010000      -0.87690000
H        1.36150000       0.62330000       1.71680000
H        0.19580000      -0.68050000       2.09640000
