15
Properties=species:S:1:pos:R:3 gdb_29665=T pbc="F F F"
C       -0.02180000       1.42660000       0.06120000
N        0.00070000      -0.01900000       0.04450000
C       -0.01230000      -0.75570000      -1.13170000
O       -0.04280000      -0.34800000      -2.27640000
N        0.01780000      -2.07830000      -0.69100000
C        0.04730000      -2.14810000       0.68660000
C        0.03720000      -0.87290000       1.16050000
C        0.05740000      -0.40470000       2.48520000
C        0.07410000       0.02240000       3.61220000
H        0.87180000       1.82880000       0.54810000
H       -0.04900000       1.75360000      -0.97940000
H       -0.90640000       1.80060000       0.58580000
H        0.01530000      -2.85010000      -1.33410000
H        0.07340000      -3.07800000       1.22660000
H        0.08910000       0.38840000       4.60880000
