13
Properties=species:S:1:pos:R:3 gdb_20489=T pbc="F F F"
C       -0.05550000       1.49500000       0.09820000
O        1.25210000       1.93330000      -0.29410000
C        2.14030000       0.83530000      -0.60950000
C        1.29770000      -0.37900000      -0.38960000
C        0.06920000       0.01290000       0.00720000
O       -0.74590000      -1.01240000       0.22540000
N       -0.01340000      -2.18940000      -0.04430000
C        1.18890000      -1.79120000      -0.40530000
H       -0.28350000       1.84900000       1.11340000
H       -0.81240000       1.90870000      -0.58280000
H        2.48940000       0.94790000      -1.64460000
H        3.01740000       0.88830000       0.04920000
H        1.91880000      -2.54700000      -0.65950000
