16
Properties=species:S:1:pos:R:3 gdb_24703=T pbc="F F F"
C        0.00710000       1.50970000       0.19890000
N        1.26480000       1.95620000      -0.44870000
C        2.18330000       0.79300000      -0.51010000
C        1.28950000      -0.41270000      -0.34620000
N        1.60580000      -1.68750000      -0.52420000
C        0.60000000      -2.54640000      -0.29260000
C       -0.66340000      -2.13030000       0.11910000
N       -0.97220000      -0.83840000       0.31580000
C        0.01910000       0.00570000       0.06770000
H       -0.00350000       1.79980000       1.25950000
H       -0.86650000       1.97440000      -0.26630000
H        1.04760000       2.23580000      -1.39780000
H        2.75060000       0.78310000      -1.44480000
H        2.91640000       0.83810000       0.30810000
H        0.81260000      -3.60190000      -0.43810000
H       -1.45130000      -2.85620000       0.29960000
