13
Properties=species:S:1:pos:R:3 gdb_131969=T pbc="F F F"
C       -0.03430000       1.46020000      -0.02530000
N       -0.01200000       0.00370000       0.05500000
N       -0.03110000      -0.72620000      -1.07640000
C       -0.00220000      -1.98070000      -0.63260000
N        0.03420000      -2.10900000       0.71140000
C        0.02690000      -0.85360000       1.10250000
N        0.05670000      -0.42680000       2.48870000
O        0.09040000      -1.29270000       3.34030000
O        0.04510000       0.78750000       2.68670000
H        0.85810000       1.87730000       0.44150000
H       -0.06540000       1.70400000      -1.08580000
H       -0.91240000       1.85270000       0.48780000
H       -0.00800000      -2.82070000      -1.31000000
