18
Properties=species:S:1:pos:R:3 gdb_55091=T pbc="F F F"
C       -0.02480000       1.54850000       0.08890000
C        0.01460000       0.05120000       0.07330000
C       -0.91240000      -0.85130000       0.84040000
C        0.57750000      -0.98220000       1.04640000
C        1.18270000      -1.70930000      -0.15610000
N        0.62510000      -0.66270000      -1.07030000
H       -0.03970000      -1.00300000      -1.76170000
H        2.46440000      -0.36640000      -1.41840000
C        2.71540000      -1.70990000      -0.17290000
O        3.36670000      -2.44200000       0.52300000
O        3.24290000      -0.81180000      -1.01150000
H        0.95910000       1.96940000      -0.14050000
H       -0.73800000       1.93080000      -0.65120000
H       -0.33760000       1.91550000       1.07060000
H       -1.44640000      -0.37880000       1.65930000
H       -1.46840000      -1.63950000       0.33630000
H        1.06470000      -0.85000000       2.00270000
H        0.83090000      -2.73310000      -0.32130000
