16
Properties=species:S:1:pos:R:3 gdb_18386=T pbc="F F F"
C        0.03450000       1.51510000      -0.03450000
O        1.40190000       1.90500000      -0.24910000
C        2.34330000       1.61780000       0.69260000
N        2.34650000       0.93400000       1.75300000
C        1.20590000       0.17470000       2.26360000
C        0.48320000      -0.66310000       1.21930000
N       -0.97970000      -0.49470000       1.12030000
C       -0.11060000       0.01670000       0.04320000
H       -0.35130000       1.97810000       0.87780000
H       -0.50870000       1.93560000      -0.88430000
H        3.26300000       2.12100000       0.39150000
H        1.58650000      -0.48160000       3.05350000
H        0.48550000       0.84210000       2.74900000
H        0.88620000      -1.65930000       1.05350000
H       -1.41550000      -1.36540000       0.82750000
H       -0.09880000      -0.51220000      -0.90660000
