14
Properties=species:S:1:pos:R:3 gdb_35312=T pbc="F F F"
N        0.04940000      -1.18940000      -0.18500000
C        0.03610000      -0.03940000      -0.07320000
C        0.00430000       1.40970000       0.05480000
C       -0.26380000       2.03280000       1.48110000
C        1.07190000       2.78160000       1.35190000
N        2.11120000       1.72910000       1.19860000
C        1.35470000       2.15240000       0.01870000
C        1.38360000       4.09140000       1.81610000
N        1.62650000       5.15630000       2.19900000
H       -0.69070000       1.82410000      -0.67880000
H       -1.13660000       2.68500000       1.48240000
H       -0.30600000       1.32900000       2.31190000
H        3.02480000       2.18150000       1.16850000
H        1.83870000       2.57100000      -0.85400000
