21
Properties=species:S:1:pos:R:3 gdb_96146=T pbc="F F F"
O       -0.06830000       1.42610000       0.13100000
C        0.00430000       0.00780000       0.00190000
C        0.87620000      -0.55280000       1.14530000
O        0.87200000      -1.96160000       1.24400000
C       -0.23630000      -2.50870000       1.94370000
C       -1.60570000      -2.20970000       1.32160000
C       -1.52960000      -2.05090000      -0.22420000
C       -1.43340000      -0.51160000      -0.01430000
C       -2.05200000      -0.72040000       1.39540000
H        0.82710000       1.77850000       0.09470000
H        0.46980000      -0.26650000      -0.95920000
H        1.91970000      -0.26150000       0.96930000
H        0.56130000      -0.08440000       2.09030000
H       -0.05830000      -3.58920000       1.93840000
H       -0.22300000      -2.17030000       2.99380000
H       -2.32270000      -2.93920000       1.71130000
H       -0.69760000      -2.54180000      -0.73450000
H       -2.46770000      -2.32960000      -0.71020000
H       -2.00040000       0.11250000      -0.70930000
H       -3.14140000      -0.63290000       1.36780000
H       -1.67980000      -0.10510000       2.21890000
