21
Properties=species:S:1:pos:R:3 gdb_78382=T pbc="F F F"
C       -0.21610000       1.58930000      -0.07850000
C        0.00470000       0.08570000      -0.00450000
C        1.00320000      -0.63550000      -0.98220000
C        1.59630000      -1.42530000       0.23300000
C        2.88490000      -0.96850000       0.95630000
C        3.09510000       0.50820000       1.04150000
O        2.89110000       1.44910000       0.02140000
C        2.00970000      -0.04820000       1.89300000
C        0.73110000      -0.58850000       1.20290000
H        0.72260000       2.13660000       0.01160000
H       -0.67980000       1.86350000      -1.03370000
H       -0.89220000       1.92020000       0.71900000
H       -0.96990000      -0.41040000      -0.08960000
H        0.51690000      -1.26810000      -1.72950000
H        1.70280000       0.02730000      -1.48720000
H        1.48320000      -2.50900000       0.20230000
H        3.68300000      -1.65190000       1.22900000
H        3.97080000       0.74540000       1.65140000
H        3.59090000       1.33110000      -0.63020000
H        2.06940000       0.07420000       2.96950000
H        0.09000000      -1.09010000       1.93020000
