16
Properties=species:S:1:pos:R:3 gdb_123842=T pbc="F F F"
C       -0.04270000       1.49270000       0.08140000
C        1.35520000       2.14890000      -0.01130000
C        2.19340000       1.43990000      -1.03050000
C        3.24630000       1.75390000      -1.82010000
O        3.66390000       0.66950000      -2.50590000
N        2.86560000      -0.42180000      -2.16490000
C        2.00110000       0.04790000      -1.29450000
C        0.93170000      -0.69960000      -0.65630000
C       -0.01420000      -0.01870000       0.00500000
H       -0.53570000       1.81210000       1.00520000
H       -0.67730000       1.86260000      -0.73810000
H        1.25810000       3.21640000      -0.22950000
H        1.84480000       2.07350000       0.96930000
H        3.80060000       2.66130000      -2.00470000
H        0.91300000      -1.77940000      -0.74900000
H       -0.83980000      -0.55280000       0.46670000
