14
Properties=species:S:1:pos:R:3 gdb_128586=T pbc="F F F"
C        0.02140000       1.36230000       0.11650000
O        0.09050000      -0.05390000      -0.00400000
C        0.63050000      -0.55660000      -1.11250000
C        1.13790000       0.11930000      -2.17250000
C        1.66910000      -0.64530000      -3.25830000
N        1.71550000      -1.93170000      -3.33280000
O        1.19200000      -2.62280000      -2.23930000
C        0.64490000      -2.03610000      -1.11910000
O        0.22670000      -2.73670000      -0.24060000
H        1.02310000       1.80730000       0.09420000
H       -0.58850000       1.79500000      -0.68520000
H       -0.44640000       1.55830000       1.08080000
H        1.15520000       1.19980000      -2.22570000
H        2.08560000      -0.14440000      -4.12730000
