20
Properties=species:S:1:pos:R:3 gdb_17974=T pbc="F F F"
C        0.00040000       1.47700000       0.22530000
C        1.40150000       2.09340000       0.02890000
C        2.28060000       1.51140000      -1.08090000
O        1.84360000       1.70300000      -2.41080000
C        0.66920000       1.04430000      -2.86370000
C        0.37860000      -0.37010000      -2.33220000
O       -0.54740000      -0.43890000      -1.26520000
C       -0.12270000      -0.04660000       0.02930000
H       -0.32980000       1.71910000       1.24230000
H       -0.73020000       1.94460000      -0.44230000
H        1.30330000       3.17460000      -0.12240000
H        1.97490000       1.96450000       0.95720000
H        3.25610000       2.00780000      -1.04330000
H        2.47080000       0.44650000      -0.88140000
H       -0.22570000       1.65700000      -2.67870000
H        0.79880000       0.98270000      -3.95020000
H       -0.10190000      -0.93050000      -3.14100000
H        1.31480000      -0.89670000      -2.09090000
H        0.81180000      -0.56190000       0.30530000
H       -0.90430000      -0.43020000       0.69240000
