12
Properties=species:S:1:pos:R:3 gdb_21390=T pbc="F F F"
N        0.02510000       1.31980000       0.05570000
N        1.29870000       1.81540000       0.03290000
C        2.08190000       0.76950000      -0.00610000
N        1.35510000      -0.39830000      -0.00920000
C        1.37240000      -1.78900000      -0.03500000
C        0.04310000      -2.14100000      -0.00780000
N       -0.81230000      -1.05250000       0.03380000
C        0.02180000      -0.04150000       0.03120000
H       -0.75760000       1.94700000       0.08860000
H        3.15690000       0.82360000      -0.03220000
H        2.28220000      -2.36100000      -0.06900000
H       -0.35410000      -3.14560000      -0.01600000
