20
Properties=species:S:1:pos:R:3 gdb_22447=T pbc="F F F"
C        0.21090000       1.76120000       0.00460000
C        0.01450000       0.23520000      -0.06500000
C        0.70100000      -0.36760000      -1.26560000
N        1.93550000      -0.69580000      -1.32260000
O        2.60940000      -0.42800000      -0.12230000
C       -0.13080000      -0.62140000      -2.51300000
C        0.68610000      -0.83180000      -3.79140000
C       -0.98450000      -1.85520000      -2.21830000
O       -2.13060000      -1.82970000      -1.85360000
H        1.27180000       2.00780000       0.09180000
H       -0.18390000       2.25620000      -0.88860000
H       -0.31140000       2.17290000       0.87310000
H        0.41970000      -0.22320000       0.84120000
H       -1.05290000      -0.00160000      -0.11400000
H        3.50200000      -0.73100000      -0.31950000
H       -0.82880000       0.21600000      -2.62690000
H        0.02250000      -0.96150000      -4.65170000
H        1.33460000       0.02770000      -3.97570000
H        1.32780000      -1.71220000      -3.70760000
H       -0.43470000      -2.81620000      -2.34480000
