21
Properties=species:S:1:pos:R:3 gdb_1571=T pbc="F F F"
C        0.05710000       1.59010000       0.03880000
C       -0.01660000       0.06110000      -0.00670000
C        0.65440000      -0.52800000      -1.25360000
C        0.68640000      -2.06520000      -1.30580000
C       -0.71130000      -2.69160000      -1.39900000
C        1.56440000      -2.53000000      -2.46950000
O        1.69760000      -3.94340000      -2.40380000
H        1.09650000       1.93720000       0.03980000
H       -0.43770000       2.03660000      -0.83120000
H       -0.42730000       1.98750000       0.93630000
H        0.46130000      -0.35570000       0.88990000
H       -1.06670000      -0.25040000       0.03560000
H        0.14620000      -0.14610000      -2.15130000
H        1.68480000      -0.14860000      -1.30550000
H        1.16820000      -2.43110000      -0.38760000
H       -0.63390000      -3.77570000      -1.50740000
H       -1.31210000      -2.47920000      -0.51050000
H       -1.25340000      -2.30210000      -2.27030000
H        1.10460000      -2.21920000      -3.42310000
H        2.54970000      -2.04040000      -2.40560000
H        2.18480000      -4.23640000      -3.17880000
