21
Properties=species:S:1:pos:R:3 gdb_56814=T pbc="F F F"
C       -0.82680000       1.32450000       0.37740000
C        0.46560000       0.60180000      -0.05580000
C        1.46880000       1.57510000      -0.51030000
N        2.25450000       2.34600000      -0.86310000
C        1.02890000      -0.23630000       1.09250000
C        0.64190000      -1.67030000       1.29890000
C       -0.30700000      -2.43030000       0.39480000
N        2.00720000      -1.30320000       0.92000000
C        2.54510000      -1.63190000      -0.39270000
H       -0.63900000       1.96400000       1.24430000
H       -1.21640000       1.94920000      -0.42990000
H       -1.58620000       0.58720000       0.64990000
H        0.23580000      -0.03430000      -0.91510000
H        1.21290000       0.37550000       1.97640000
H        0.57810000      -2.00340000       2.33530000
H       -0.32330000      -2.07120000      -0.63600000
H       -0.03510000      -3.49110000       0.36760000
H       -1.32760000      -2.36530000       0.78640000
H        1.82480000      -1.63160000      -1.22340000
H        3.33690000      -0.91720000      -0.63430000
H        2.99330000      -2.62900000      -0.34310000
