19
Properties=species:S:1:pos:R:3 gdb_11909=T pbc="F F F"
C        0.88910000       1.26980000      -0.23000000
C       -0.10500000       0.13670000       0.02880000
C       -0.13700000      -0.92700000      -1.08360000
C        0.98310000      -1.85720000      -0.64700000
C        1.42400000      -3.04480000      -1.40590000
N        2.29800000      -1.85560000      -1.31380000
C        0.97840000      -1.76860000       0.87470000
O        0.24390000      -0.59160000       1.21240000
H        1.88660000       0.87560000      -0.44930000
H        0.56550000       1.88660000      -1.07580000
H        0.96280000       1.90920000       0.65380000
H       -1.09930000       0.56080000       0.20840000
H       -1.09770000      -1.45390000      -1.07040000
H        0.01210000      -0.51570000      -2.08620000
H        1.79340000      -3.92270000      -0.88130000
H        0.93270000      -3.26220000      -2.35150000
H        2.24640000      -1.33010000      -2.18390000
H        0.47630000      -2.63110000       1.33310000
H        2.00410000      -1.71660000       1.25860000
