18
Properties=species:S:1:pos:R:3 gdb_107452=T pbc="F F F"
O        0.15630000       1.32400000       0.45370000
C       -0.03690000       0.08960000      -0.22500000
C       -1.47370000      -0.31620000      -0.04230000
O       -1.94340000      -1.33540000      -0.92600000
C       -2.56400000      -0.04550000      -0.99990000
C       -3.88900000       0.07550000      -0.25380000
C       -3.54190000      -0.13960000       1.22190000
N       -3.02690000      -1.48070000       1.55570000
C       -2.07750000      -0.36580000       1.35180000
H        1.09890000       1.51270000       0.46900000
H        0.17690000       0.16900000      -1.30080000
H        0.61480000      -0.69810000       0.18530000
H       -2.41400000       0.48330000      -1.93950000
H       -4.29400000       1.08360000      -0.39690000
H       -4.62940000      -0.64330000      -0.61830000
H       -4.10620000       0.40160000       1.97520000
H       -3.13820000      -1.63180000       2.55650000
H       -1.49350000       0.01840000       2.17920000
