22
Properties=species:S:1:pos:R:3 gdb_57334=T pbc="F F F"
C       -0.04380000       1.55720000       0.10910000
C       -0.00050000       0.02470000       0.02540000
C        0.64590000      -0.54960000       1.29080000
O       -1.33060000      -0.49440000       0.03040000
C        0.73410000      -0.47840000      -1.28740000
C       -0.02510000      -0.04960000      -2.56620000
C        2.20010000       0.00720000      -1.38350000
C        0.74700000      -1.95270000      -1.26520000
N        0.79060000      -3.10770000      -1.27790000
H        0.95330000       1.99710000       0.18910000
H       -0.54090000       2.00290000      -0.75860000
H       -0.60980000       1.84070000       1.00050000
H        0.05410000      -0.24520000       2.15750000
H        0.66260000      -1.64120000       1.25800000
H        1.66640000      -0.18430000       1.42700000
H       -1.87010000       0.03340000      -0.56650000
H       -0.01690000       1.03800000      -2.67450000
H        0.45780000      -0.47680000      -3.44870000
H       -1.05830000      -0.40360000      -2.55440000
H        2.78850000      -0.29610000      -0.51560000
H        2.67610000      -0.41500000      -2.27240000
H        2.23550000       1.09620000      -1.46900000
