19
Properties=species:S:1:pos:R:3 gdb_91678=T pbc="F F F"
C        0.06200000       1.42460000      -0.12210000
N        0.00460000      -0.00750000       0.11410000
C       -1.36620000      -0.56310000       0.31900000
C       -1.13470000      -1.35390000       1.61660000
C       -0.37520000      -0.30140000       2.47920000
C        0.67470000      -0.46900000       1.34200000
C        0.27510000      -1.98380000       1.30420000
C        0.83060000      -2.81940000       2.35100000
N        1.27770000      -3.49700000       3.17500000
H        1.10510000       1.73400000      -0.24350000
H       -0.46390000       1.65750000      -1.05320000
H       -0.38690000       2.03850000       0.68000000
H       -2.11670000       0.22470000       0.46230000
H       -1.67610000      -1.18640000      -0.52680000
H       -1.95330000      -1.95890000       2.00250000
H       -0.83670000       0.67960000       2.60950000
H       -0.04200000      -0.69730000       3.43910000
H        1.71300000      -0.15040000       1.42260000
H        0.39410000      -2.46530000       0.33070000
