19
Properties=species:S:1:pos:R:3 gdb_110868=T pbc="F F F"
C        0.24000000       1.00080000      -0.31080000
O       -0.39210000      -0.07710000       0.35890000
C        0.45420000      -0.70180000       1.28830000
C        0.10370000      -2.04030000       1.85550000
C       -0.56780000      -2.91050000       0.78900000
C        0.70510000      -2.76190000      -0.11320000
O        0.56900000      -2.26130000      -1.42200000
C        1.34670000      -1.86380000       0.95430000
O        2.67480000      -1.92530000       1.34180000
H        1.08730000       0.65470000      -0.92050000
H       -0.50760000       1.45900000      -0.96260000
H        0.60280000       1.75660000       0.40030000
H        0.89890000      -0.01390000       2.00970000
H        0.05270000      -2.20000000       2.92530000
H       -0.74170000      -3.93870000       1.11170000
H       -1.48900000      -2.50720000       0.36180000
H        1.25150000      -3.70510000      -0.19270000
H       -0.02260000      -1.50250000      -1.35350000
H        3.19380000      -1.38690000       0.73370000
