18
Properties=species:S:1:pos:R:3 gdb_47019=T pbc="F F F"
O        0.01730000      -0.04960000       0.17860000
C       -0.00540000       1.16400000       0.13900000
C       -1.34760000       1.91660000       0.10380000
N       -1.26400000       3.26310000       0.68500000
C       -0.25110000       4.03830000       0.00340000
C        0.52890000       5.18450000       0.72940000
C        1.85780000       4.57550000       0.16080000
C        1.06400000       3.30860000      -0.05220000
C        1.21450000       1.99240000       0.09970000
H       -1.67610000       1.91720000      -0.95480000
H       -2.06820000       1.31590000       0.66330000
H       -2.17190000       3.71420000       0.63830000
H       -0.55050000       4.38240000      -1.00530000
H        0.28620000       6.21190000       0.45280000
H        0.46290000       5.05840000       1.81140000
H        2.15640000       5.05470000      -0.77750000
H        2.72820000       4.51650000       0.81720000
H        2.17040000       1.49350000       0.22450000
