18
Properties=species:S:1:pos:R:3 gdb_52169=T pbc="F F F"
N       -0.13070000       1.16700000       0.84970000
C       -0.09710000       0.08770000       0.21580000
C       -1.10810000      -0.98700000      -0.12330000
C        0.08440000      -1.66240000      -0.83470000
C        0.02830000      -1.81150000      -2.34260000
C        1.40270000      -2.14730000      -2.94730000
C        1.37340000      -2.12200000      -4.45830000
O        1.69670000      -3.03580000      -5.17120000
O        0.95040000      -0.54360000      -0.43060000
H        0.78500000       1.61920000       0.86560000
H       -1.51900000      -1.51530000       0.73800000
H       -1.92220000      -0.66110000      -0.77390000
H        0.43910000      -2.58080000      -0.35610000
H       -0.69560000      -2.59870000      -2.58740000
H       -0.35300000      -0.87810000      -2.77610000
H        2.11950000      -1.38490000      -2.61230000
H        1.76160000      -3.12710000      -2.61910000
H        1.01260000      -1.15810000      -4.89030000
