25
Properties=species:S:1:pos:R:3 gdb_58261=T pbc="F F F"
C       -0.00870000       1.60070000       0.06700000
C        0.00780000       0.06350000       0.03400000
C        0.83530000      -0.45880000       1.21920000
C       -1.42230000      -0.53640000      -0.02420000
C       -2.17950000      -0.05850000      -1.27690000
C       -1.42960000      -2.06910000       0.00810000
C       -1.23320000      -2.84770000       1.33280000
O       -2.41710000      -3.63350000       1.10000000
C       -2.79570000      -2.79780000      -0.01010000
H        1.01080000       1.99280000       0.14110000
H       -0.46140000       2.03610000      -0.82700000
H       -0.56580000       1.96720000       0.93790000
H        0.52090000      -0.24550000      -0.88950000
H        0.35130000      -0.22590000       2.17490000
H        0.99390000      -1.53910000       1.17460000
H        1.82330000       0.01310000       1.23040000
H       -1.97200000      -0.18220000       0.86220000
H       -1.63250000      -0.32770000      -2.18860000
H       -3.17190000      -0.51510000      -1.33990000
H       -2.32380000       1.02410000      -1.28190000
H       -0.77160000      -2.45610000      -0.77810000
H       -0.33840000      -3.47420000       1.42320000
H       -1.32730000      -2.23120000       2.23790000
H       -3.65070000      -2.15350000       0.24350000
H       -3.04650000      -3.38230000      -0.90260000
