17
Properties=species:S:1:pos:R:3 gdb_74857=T pbc="F F F"
C        0.05050000       1.49360000       0.04870000
C        0.00620000       0.00180000      -0.01220000
C       -0.11950000      -0.78400000      -1.09230000
C       -0.06190000      -2.22840000      -0.71830000
O        1.18980000      -2.62150000      -0.09530000
C        0.08390000      -2.28150000       0.74280000
C        0.11330000      -0.84920000       1.22020000
C        0.72580000      -0.43640000       2.49120000
O       -0.69360000      -0.50790000       2.36010000
H        1.04990000       1.85310000       0.32430000
H       -0.21070000       1.93820000      -0.91460000
H       -0.64620000       1.86600000       0.80770000
H       -0.21330000      -0.43480000      -2.11350000
H       -0.54190000      -3.00250000      -1.30800000
H       -0.31200000      -3.06210000       1.38640000
H        1.18090000      -1.19200000       3.13000000
H        1.13650000       0.56670000       2.59410000
