20
Properties=species:S:1:pos:R:3 gdb_116014=T pbc="F F F"
C        0.06560000       1.12730000      -0.39840000
O       -0.07560000      -0.19060000       0.09470000
C        0.68470000      -0.46790000       1.26080000
C        0.23680000      -1.80880000       1.85750000
C        1.30780000      -2.81400000       1.35570000
N        2.47560000      -2.02500000       0.94570000
C        2.13550000      -0.80040000       0.92290000
O        2.93850000       0.21520000       0.57980000
C        4.26930000      -0.15070000       0.20080000
H        1.08590000       1.33670000      -0.74110000
H       -0.62470000       1.22460000      -1.24000000
H       -0.20170000       1.87130000       0.36850000
H        0.60740000       0.37570000       1.96190000
H        0.25220000      -1.75150000       2.94930000
H       -0.77970000      -2.05000000       1.54170000
H        1.59930000      -3.53090000       2.12990000
H        0.95480000      -3.40070000       0.49880000
H        4.77260000      -0.66740000       1.02270000
H        4.25290000      -0.81500000      -0.66760000
H        4.78020000       0.78290000      -0.03720000
