21
Properties=species:S:1:pos:R:3 gdb_68915=T pbc="F F F"
C       -0.10320000       1.49700000       0.09840000
C        0.04170000      -0.00890000       0.00780000
C        1.44090000      -0.57580000      -0.19160000
C        0.72750000      -0.74850000       1.12910000
O        1.15700000       0.04540000       2.20750000
C        0.24000000      -2.12490000       1.55040000
C       -0.59440000      -2.82170000       0.51220000
C       -1.19010000      -2.18740000      -0.49570000
C       -1.10640000      -0.70300000      -0.71750000
H        0.72920000       1.94390000       0.64380000
H       -0.14250000       1.94040000      -0.90370000
H       -1.02790000       1.77150000       0.61940000
H        1.56420000      -1.44340000      -0.83210000
H        2.25960000       0.13600000      -0.21470000
H        1.99710000      -0.31140000       2.51640000
H        1.10040000      -2.75350000       1.82620000
H       -0.34300000      -2.00120000       2.47450000
H       -0.71820000      -3.89580000       0.62410000
H       -1.79840000      -2.74980000      -1.20000000
H       -2.05540000      -0.24470000      -0.39810000
H       -1.03560000      -0.48980000      -1.79410000
