14
Properties=species:S:1:pos:R:3 gdb_14000=T pbc="F F F"
C       -0.08820000      -1.20800000       0.09280000
C       -0.04330000      -0.00700000       0.07030000
C        0.00920000       1.42700000       0.01200000
O        0.61980000       2.11830000       1.13180000
C        1.29180000       2.13980000      -0.09880000
C        2.69910000       1.62100000      -0.36110000
O        2.97130000       2.78020000      -1.18430000
C        1.69370000       3.38400000      -0.88380000
H       -0.13140000      -2.26910000       0.12130000
H       -0.88510000       1.91910000      -0.36850000
H        3.33660000       1.57980000       0.53060000
H        2.77870000       0.68110000      -0.91860000
H        1.11660000       3.61310000      -1.78730000
H        1.78950000       4.28720000      -0.26760000
