18
Properties=species:S:1:pos:R:3 gdb_60803=T pbc="F F F"
C       -0.02260000       1.69200000       0.68170000
C       -0.08360000       0.26490000       0.12460000
C        0.69900000      -0.76130000       0.99940000
O        0.74760000      -2.04070000       0.40970000
C        2.12440000      -0.29890000       1.25380000
O        3.06600000      -0.94550000       0.85850000
C       -1.56220000      -0.16230000      -0.05090000
N       -1.74470000      -1.39080000      -0.60650000
O       -2.48100000       0.57860000       0.24460000
H        0.97120000       2.13140000       0.56120000
H       -0.74780000       2.31730000       0.16060000
H       -0.28950000       1.71800000       1.74310000
H        0.38140000       0.23330000      -0.86930000
H        0.19900000      -0.82390000       1.98070000
H        1.68880000      -2.20500000       0.22740000
H        2.26190000       0.64090000       1.81660000
H       -0.97550000      -2.04500000      -0.61340000
H       -2.69000000      -1.73920000      -0.63320000
