14
Properties=species:S:1:pos:R:3 gdb_98150=T pbc="F F F"
C       -0.39210000       1.37150000      -0.68110000
O       -0.27900000      -0.05750000      -0.80810000
C        0.92030000      -0.56400000      -0.50680000
O        1.86900000       0.05370000      -0.11730000
C        0.89170000      -2.09550000      -0.75210000
C        0.92010000      -2.37780000      -2.18750000
C        0.94300000      -2.59550000      -3.36670000
C        1.99600000      -2.75600000      -0.04380000
N        2.83860000      -3.30620000       0.52020000
H       -0.18700000       1.67810000       0.34690000
H        0.31390000       1.86790000      -1.35060000
H       -1.41820000       1.60920000      -0.95790000
H       -0.05280000      -2.46800000      -0.33490000
H        0.96660000      -2.79500000      -4.41010000
