15
Properties=species:S:1:pos:R:3 gdb_25972=T pbc="F F F"
C        0.08070000       1.40040000       0.24950000
C       -0.34730000       0.07390000      -0.31600000
O       -0.71460000      -0.12520000      -1.44780000
O       -0.26020000      -0.88520000       0.64400000
C       -0.58850000      -2.19180000       0.40880000
N       -0.49730000      -3.09450000       1.34400000
C       -0.90740000      -4.26090000       0.72980000
C       -1.24070000      -4.03320000      -0.57690000
N       -1.03010000      -2.68240000      -0.77800000
H        1.10810000       1.33430000       0.61820000
H        0.00770000       2.16310000      -0.52420000
H       -0.55290000       1.66460000       1.10080000
H       -0.93580000      -5.19280000       1.27230000
H       -1.59690000      -4.67350000      -1.36600000
H       -1.15730000      -2.11990000      -1.60430000
