21
Properties=species:S:1:pos:R:3 gdb_116088=T pbc="F F F"
C       -0.11500000       1.56940000      -0.21850000
C       -0.00100000       0.05700000       0.04110000
N        0.71240000      -0.35990000       1.24520000
C        0.10450000       0.04300000       2.50100000
C        0.67460000      -0.82440000       3.61870000
N        2.12840000      -0.79170000       3.57570000
C        2.88660000      -0.56230000       2.46460000
O        4.09750000      -0.68220000       2.46200000
C        2.13780000      -0.06850000       1.22820000
H        0.86650000       2.04210000      -0.32010000
H       -0.66400000       1.74560000      -1.14890000
H       -0.65460000       2.07960000       0.58580000
H       -1.00800000      -0.37550000       0.09200000
H        0.49800000      -0.41870000      -0.81210000
H        0.27330000       1.10980000       2.74320000
H       -0.97740000      -0.11360000       2.44350000
H        0.33700000      -0.45130000       4.59220000
H        0.30270000      -1.85190000       3.50200000
H        2.64820000      -1.15810000       4.36020000
H        2.60540000      -0.54890000       0.36410000
H        2.36530000       1.01260000       1.15290000
