18
Properties=species:S:1:pos:R:3 gdb_38578=T pbc="F F F"
C       -0.02260000       1.50850000       0.06860000
C        1.51480000       1.46020000      -0.01940000
O        2.09530000       1.29080000       1.27000000
C        1.56350000       0.16230000       1.93250000
C        1.69980000      -1.18480000       1.26330000
C        2.18280000      -1.06450000      -0.17380000
C        1.30710000       0.07050000      -0.68840000
N       -0.04040000      -0.00440000       0.01580000
C        0.34280000      -0.50590000       1.33740000
H       -0.46460000       1.95030000       0.96470000
H       -0.49760000       1.91930000      -0.82670000
H        2.07960000       2.25240000      -0.51640000
H        1.68210000       0.24940000       3.00630000
H        1.93280000      -2.06410000       1.85240000
H        3.24630000      -0.81050000      -0.24270000
H        2.01150000      -1.98950000      -0.73320000
H        1.18600000       0.11860000      -1.77280000
H       -0.46420000      -0.86920000       1.96460000
