17
Properties=species:S:1:pos:R:3 gdb_18279=T pbc="F F F"
O        0.11870000       1.32770000      -0.16960000
C        0.07990000      -0.07550000       0.00770000
C       -1.35480000      -0.58030000       0.11620000
O       -2.03280000      -0.14980000      -1.07370000
C       -3.01780000      -1.10300000      -1.46110000
C       -2.58160000      -2.41450000      -0.84320000
N       -1.16830000      -2.72770000      -1.13090000
C       -1.53570000      -2.08480000       0.15040000
H       -0.45740000       1.51140000      -0.92090000
H        0.57230000      -0.60870000      -0.81740000
H        0.62200000      -0.29380000       0.93450000
H       -1.83540000      -0.13610000       1.00330000
H       -4.01410000      -0.82560000      -1.08160000
H       -3.04980000      -1.12150000      -2.55530000
H       -3.29950000      -3.21380000      -0.69390000
H       -1.00640000      -3.71880000      -0.96930000
H       -1.42510000      -2.62460000       1.08450000
