21
Properties=species:S:1:pos:R:3 gdb_110941=T pbc="F F F"
C       -0.46230000       1.13220000       0.25060000
O        0.42520000       0.09130000      -0.10970000
C        0.92010000      -0.59680000       0.99950000
C        0.15480000      -1.68240000       1.69150000
C       -0.66910000      -2.48700000       0.67630000
C        0.64840000      -2.86990000      -0.07940000
C        0.75600000      -2.64270000      -1.58240000
O       -0.03500000      -3.57540000      -2.31340000
C        1.45220000      -1.98290000       0.88450000
H        0.03750000       1.88870000       0.87460000
H       -0.79960000       1.60450000      -0.67470000
H       -1.33330000       0.75100000       0.80240000
H        1.49600000       0.03830000       1.67720000
H        0.00220000      -1.68940000       2.76440000
H       -1.17520000      -3.34940000       1.11300000
H       -1.39880000      -1.90030000       0.10740000
H        0.87630000      -3.92190000       0.11850000
H        0.49590000      -1.60750000      -1.83190000
H        1.78930000      -2.81250000      -1.90660000
H       -0.95810000      -3.37590000      -2.12870000
H        2.44480000      -2.22360000       1.24900000
