21
Properties=species:S:1:pos:R:3 gdb_120093=T pbc="F F F"
C        0.00340000       1.48410000       0.04220000
C       -0.15910000       0.03300000      -0.37520000
O        1.09040000      -0.44040000      -0.85800000
C        1.05480000      -1.78980000      -1.20620000
C        0.54120000      -2.40590000      -2.48090000
C        0.94890000      -1.71830000      -3.81100000
C        1.76450000      -0.45690000      -3.66710000
C        2.41210000      -1.79460000      -3.42580000
C        2.04010000      -2.48040000      -2.08360000
H        0.77000000       1.57760000       0.81660000
H        0.30120000       2.10170000      -0.81010000
H       -0.93980000       1.87350000       0.43740000
H       -0.48300000      -0.58150000       0.48140000
H       -0.92770000      -0.06930000      -1.15630000
H        0.78710000      -2.42150000      -0.35170000
H       -0.19240000      -3.20350000      -2.46110000
H        0.49280000      -2.00170000      -4.75060000
H        2.03670000      -0.01420000      -4.62200000
H        1.60560000       0.24650000      -2.86410000
H        3.24040000      -2.15360000      -4.02230000
H        2.59510000      -3.33890000      -1.72410000
