22
Properties=species:S:1:pos:R:3 gdb_100733=T pbc="F F F"
C       -0.77600000       1.58670000       0.45350000
C       -0.58100000       0.07120000       0.49030000
N       -1.36300000      -0.63750000      -0.53680000
H       -3.14880000      -0.47450000       0.14640000
C       -0.84060000      -0.43800000      -1.88590000
C       -1.60710000      -2.05750000      -0.21570000
C       -0.40370000      -2.90790000       0.20570000
C       -2.75610000      -2.15180000       0.81380000
O       -2.93350000      -3.09730000       1.53350000
O       -3.57320000      -1.08800000       0.78710000
H       -0.22750000       2.04910000       1.27950000
H       -0.40540000       2.03250000      -0.47380000
H       -1.83370000       1.84680000       0.55890000
H        0.49230000      -0.16750000       0.40520000
H       -0.90740000      -0.29910000       1.46760000
H        0.18270000      -0.82900000      -2.01470000
H       -1.49230000      -0.93550000      -2.60950000
H       -0.82600000       0.62650000      -2.13020000
H       -2.02850000      -2.49960000      -1.12900000
H        0.36100000      -2.92160000      -0.57620000
H        0.04910000      -2.54210000       1.13060000
H       -0.73750000      -3.93060000       0.38830000
