17
Properties=species:S:1:pos:R:3 gdb_82970=T pbc="F F F"
O        0.20300000       1.35030000      -0.29830000
C        0.08290000      -0.00200000      -0.01670000
C       -1.34090000      -0.70790000      -0.08370000
O       -2.06020000      -0.47400000      -1.32580000
C       -1.60950000      -1.75210000      -1.91800000
C       -0.65100000      -1.55660000      -3.11200000
C        0.48620000      -0.81190000      -2.41550000
C        0.44230000      -1.02880000      -1.09430000
C       -0.70640000      -1.96330000      -0.69980000
H       -0.27770000       1.49790000      -1.12380000
H        0.51020000      -0.17650000       0.97700000
H       -1.99090000      -0.65010000       0.79370000
H       -2.46660000      -2.40980000      -2.09450000
H       -0.39170000      -2.52470000      -3.56340000
H       -1.09420000      -0.94100000      -3.90250000
H        0.99590000       0.02490000      -2.88130000
H       -0.53180000      -2.91440000      -0.20330000
