19
Properties=species:S:1:pos:R:3 gdb_30308=T pbc="F F F"
C       -0.26880000       1.54680000      -0.02760000
C        0.03870000       0.04770000       0.04370000
C        0.96450000      -0.44650000      -1.11980000
N        1.74570000      -1.59630000      -0.58650000
C        1.79740000      -1.35720000       0.80860000
C        0.86560000      -0.43330000       1.19670000
N        0.84760000      -0.39780000       2.57050000
C        1.80940000      -1.26290000       3.04080000
C        2.41690000      -1.89270000       1.96690000
H        0.65230000       2.13680000       0.02120000
H       -0.78860000       1.79810000      -0.95860000
H       -0.91480000       1.85900000       0.80030000
H       -0.91670000      -0.50020000      -0.00090000
H        0.39570000      -0.74280000      -2.00570000
H        1.62880000       0.38550000      -1.40210000
H        2.65430000      -1.67220000      -1.02910000
H        0.29480000       0.21210000       3.14570000
H        2.00760000      -1.34330000       4.09790000
H        3.19860000      -2.63350000       2.03240000
