20
Properties=species:S:1:pos:R:3 gdb_22773=T pbc="F F F"
C       -0.51980000       1.37350000       0.18780000
C       -0.11020000      -0.08390000       0.00590000
C        0.57210000      -0.59570000      -1.32080000
C        1.21220000       0.47990000      -2.17960000
O        1.93430000      -0.17790000      -3.21130000
C        1.61120000      -1.38730000      -0.46200000
C        1.10840000      -0.61410000       0.73830000
N        1.53650000      -0.32860000       1.89490000
O        2.75570000      -0.98560000       2.16090000
H        0.31070000       2.05690000      -0.01040000
H       -1.34930000       1.63620000      -0.47680000
H       -0.84500000       1.54540000       1.21790000
H       -0.97140000      -0.72870000       0.22410000
H       -0.06970000      -1.21340000      -1.95330000
H        0.43680000       1.14290000      -2.59500000
H        1.88210000       1.10290000      -1.56470000
H        2.38700000       0.48980000      -3.73470000
H        1.40880000      -2.46070000      -0.39660000
H        2.66360000      -1.25190000      -0.72180000
H        2.96620000      -0.66720000       3.04500000
