16
Properties=species:S:1:pos:R:3 gdb_34896=T pbc="F F F"
C       -0.19090000      -1.26280000      -0.00610000
C       -0.12160000      -0.06310000       0.02040000
C       -0.01630000       1.38060000       0.06420000
C       -0.28330000       2.09510000       1.40460000
C        0.74450000       1.70430000       2.42360000
C        1.10470000       2.72970000       1.38730000
C        1.43360000       2.05240000       0.04670000
C        2.60220000       1.18580000       0.00090000
N        3.53100000       0.49790000      -0.02380000
H       -0.24890000      -2.32300000      -0.03280000
H       -0.60440000       1.82490000      -0.74310000
H       -1.23460000       2.53730000       1.67000000
H        0.58020000       2.10300000       3.41880000
H        1.19250000       0.71480000       2.40400000
H        1.40560000       3.73810000       1.63840000
H        1.49250000       2.76880000      -0.77550000
