19
Properties=species:S:1:pos:R:3 gdb_75960=T pbc="F F F"
C       -0.02540000       1.45480000       0.10570000
N       -0.00750000      -0.00300000       0.00690000
C       -1.24490000      -0.68100000      -0.01300000
N       -2.38330000      -0.12100000       0.10550000
C       -1.19230000      -2.17830000      -0.21370000
C        0.02630000      -2.80630000       0.45810000
C        1.28040000      -2.14000000      -0.09880000
C        1.24900000      -0.62230000      -0.03520000
O        2.27340000       0.02860000      -0.02790000
H        1.00550000       1.79830000       0.06720000
H       -0.58890000       1.88800000      -0.72670000
H       -0.48110000       1.77530000       1.04850000
H       -2.31720000       0.88970000       0.21010000
H       -2.13690000      -2.58250000       0.15170000
H       -1.15240000      -2.37810000      -1.29360000
H       -0.02770000      -2.66360000       1.54400000
H        0.05330000      -3.88500000       0.27890000
H        2.19430000      -2.44840000       0.41330000
H        1.40930000      -2.40940000      -1.15600000
