21
Properties=species:S:1:pos:R:3 gdb_59342=T pbc="F F F"
C       -0.06690000       1.39550000      -0.32070000
C       -0.00140000      -0.10370000      -0.00490000
C        0.87170000      -0.40700000       1.22030000
C       -1.40800000      -0.66270000       0.21280000
O       -2.29690000      -0.50900000      -0.92440000
C       -2.59150000      -1.92560000      -1.02790000
C       -2.29090000      -2.52530000      -2.38930000
C       -1.59810000      -2.18180000       0.11500000
O       -1.12950000      -3.14480000       0.64430000
H        0.93100000       1.78850000      -0.54020000
H       -0.71060000       1.58360000      -1.18380000
H       -0.46770000       1.95680000       0.53170000
H        0.42430000      -0.62030000      -0.87560000
H        0.49190000       0.11130000       2.10870000
H        0.89450000      -1.47830000       1.43870000
H        1.89820000      -0.06740000       1.05230000
H       -1.85180000      -0.23080000       1.12360000
H       -3.63000000      -2.13350000      -0.73040000
H       -1.25220000      -2.34300000      -2.67790000
H       -2.46420000      -3.60560000      -2.36450000
H       -2.94430000      -2.08610000      -3.14880000
