20
Properties=species:S:1:pos:R:3 gdb_66833=T pbc="F F F"
C       -0.09090000       1.52610000      -0.03140000
C        0.00090000       0.03610000       0.02600000
C       -0.03160000      -1.04980000      -1.04840000
C        1.08820000      -1.89540000      -0.40040000
C        0.35310000      -2.96800000       0.42450000
N       -0.31140000      -1.83950000       1.17910000
C        0.89320000      -0.94350000       0.82850000
C       -1.03190000      -1.05510000       0.12070000
C       -2.52110000      -1.04360000       0.00270000
H        0.84050000       1.97390000      -0.39710000
H       -0.89400000       1.84050000      -0.70690000
H       -0.30230000       1.95220000       0.95620000
H       -0.33010000      -0.97710000      -2.08640000
H        2.02500000      -2.05210000      -0.93530000
H       -0.32890000      -3.65940000      -0.08100000
H        1.00970000      -3.51960000       1.10460000
H        1.62470000      -0.72380000       1.60500000
H       -2.98820000      -0.70550000       0.93350000
H       -2.84210000      -0.37680000      -0.80450000
H       -2.90560000      -2.04550000      -0.22210000
