17
Properties=species:S:1:pos:R:3 gdb_80776=T pbc="F F F"
O        0.05440000       1.45370000       0.05620000
C       -0.01020000       0.06480000       0.00040000
C       -0.43780000      -0.74810000       1.16660000
O       -1.42170000      -0.00330000       1.90280000
C       -2.37320000      -0.14320000       0.79710000
C       -3.07670000       1.15080000       0.40970000
C       -3.91810000       1.69900000       1.54420000
O       -3.90760000       2.84370000       1.91200000
C       -1.29750000      -0.74590000      -0.09890000
H       -0.25370000       1.70430000       0.93790000
H        0.79680000      -0.35860000      -0.59190000
H        0.11580000      -1.51300000       1.69920000
H       -3.11240000      -0.90140000       1.08940000
H       -2.37470000       1.90970000       0.06350000
H       -3.76170000       0.91260000      -0.41820000
H       -4.58230000       0.94510000       2.02980000
H       -1.45880000      -1.50990000      -0.84780000
