17
Properties=species:S:1:pos:R:3 gdb_5723=T pbc="F F F"
C        0.02480000       1.52290000      -0.02460000
C        1.52880000       1.88990000      -0.00060000
N        2.11030000       0.72690000       0.64670000
C        3.33050000       0.41210000       1.18170000
C        3.27920000      -0.91770000       1.54880000
C        1.98750000      -1.42030000       1.21070000
C        1.29090000      -0.37340000       0.65020000
C       -0.01580000      -0.03210000      -0.00190000
H       -0.45480000       1.91360000       0.87750000
H       -0.48930000       1.95180000      -0.88740000
H        1.93520000       2.01590000      -1.01300000
H        1.73400000       2.80610000       0.56100000
H        4.11530000       1.14580000       1.27220000
H        4.07750000      -1.46810000       2.02420000
H        1.62310000      -2.42350000       1.37040000
H       -0.88700000      -0.41020000       0.54050000
H       -0.07510000      -0.43750000      -1.02100000
