18
Properties=species:S:1:pos:R:3 gdb_79511=T pbc="F F F"
C       -0.09600000       1.55260000       0.02700000
C        0.03690000       0.03450000      -0.00850000
N        0.84820000      -0.46220000      -1.14510000
C        1.25410000      -1.89570000      -0.79670000
C        2.56700000      -1.67440000      -1.56600000
C        2.32200000      -0.42120000      -0.70920000
C        1.89810000      -1.31160000       0.51210000
C        0.79550000      -0.54970000       1.19770000
O        0.56760000      -0.40970000       2.37120000
H        0.88500000       2.03790000       0.05730000
H       -0.62700000       1.91380000      -0.85730000
H       -0.64650000       1.85380000       0.92230000
H       -0.95910000      -0.42330000      -0.06710000
H        0.54000000      -2.71850000      -0.86640000
H        3.41440000      -2.30280000      -1.28980000
H        2.46850000      -1.53970000      -2.64450000
H        2.88660000       0.51170000      -0.68060000
H        2.61860000      -1.86370000       1.11380000
