16
Properties=species:S:1:pos:R:3 gdb_30974=T pbc="F F F"
C        0.13050000       1.35020000       0.06270000
O       -0.46680000       0.16800000      -0.49560000
C        0.33030000      -0.55890000      -1.27270000
C        0.67360000      -1.84470000      -1.24670000
C        0.37850000      -2.96660000      -0.33040000
O        1.45150000      -2.09830000      -2.37950000
C        1.58740000      -0.92980000      -3.06040000
N        2.25630000      -0.82180000      -4.11840000
O        0.88670000       0.05090000      -2.39570000
H        0.99540000       1.08600000       0.68140000
H        0.43920000       2.03900000      -0.72860000
H       -0.64030000       1.81400000       0.67840000
H       -0.16950000      -3.76540000      -0.84290000
H        1.29870000      -3.40320000       0.07340000
H       -0.23210000      -2.60450000       0.49940000
H        2.22260000       0.13210000      -4.46760000
