19
Properties=species:S:1:pos:R:3 gdb_31145=T pbc="F F F"
C        0.35540000       1.40550000       0.37470000
N       -0.19490000       0.17300000      -0.19980000
C        0.57270000      -0.41080000      -1.24230000
C        0.24060000      -0.31670000      -2.56380000
N       -0.78000000       0.36810000      -3.20310000
O        1.13870000      -0.96020000      -3.33780000
C        2.07860000      -1.50360000      -2.48490000
C        1.79460000      -1.19210000      -1.19730000
C        2.55960000      -1.59670000       0.02330000
H        1.35730000       1.29210000       0.81860000
H        0.42350000       2.16560000      -0.40900000
H       -0.32320000       1.77600000       1.15000000
H       -0.37370000      -0.49840000       0.53910000
H       -1.49910000       0.61060000      -2.53090000
H       -1.17180000      -0.14290000      -3.98520000
H        2.85770000      -2.07460000      -2.96090000
H        2.97450000      -0.72950000       0.55060000
H        1.92350000      -2.13010000       0.74010000
H        3.39180000      -2.25800000      -0.23370000
