18
Properties=species:S:1:pos:R:3 gdb_54424=T pbc="F F F"
C       -0.01600000       1.54430000       0.03540000
C       -0.02880000       0.04850000      -0.06760000
C       -0.93580000      -0.83190000       0.74220000
C        0.54900000      -0.99080000       0.92010000
N        1.19840000      -1.73170000      -0.16870000
H        2.68460000      -1.56690000       1.26930000
H        0.85480000      -2.68500000      -0.26730000
C        0.63020000      -0.77970000      -1.18000000
C        1.28760000      -0.71550000       2.17900000
O        2.55110000      -1.18280000       2.15690000
O        0.83230000      -0.10470000       3.11190000
H        0.94190000       1.95730000      -0.29820000
H       -0.80700000       1.98960000      -0.57920000
H       -0.17520000       1.85670000       1.07150000
H       -1.43060000      -0.34050000       1.57290000
H       -1.49570000      -1.64180000       0.27890000
H       -0.04780000      -1.23210000      -1.91290000
H        1.42650000      -0.24910000      -1.71040000
