16
Properties=species:S:1:pos:R:3 gdb_3562=T pbc="F F F"
C        0.02290000       1.47400000      -0.04920000
C        1.29590000       0.71910000       0.07450000
C        1.83660000       0.32170000       1.45550000
C        1.43530000      -1.19950000       1.42800000
C        0.00890000      -0.56930000       1.43260000
C        0.61060000       0.49520000       2.39150000
N       -0.01450000       0.00350000       0.04500000
H       -0.34450000       2.09250000       0.76140000
H       -0.25640000       1.83730000      -1.03490000
H        1.94630000       0.59650000      -0.78780000
H        2.83470000       0.66250000       1.72890000
H        1.70700000      -1.78140000       0.54440000
H        1.68680000      -1.73400000       2.34650000
H       -0.89360000      -1.13340000       1.66460000
H        0.79930000       0.07110000       3.37890000
H        0.14160000       1.47240000       2.50880000
