21
Properties=species:S:1:pos:R:3 gdb_91013=T pbc="F F F"
C       -0.04420000       1.54340000       0.04930000
C        0.02290000       0.04260000       0.04080000
C       -0.82470000      -0.81360000       0.93680000
C        0.67270000      -0.94060000       1.03680000
C        1.27210000      -1.75420000      -0.13060000
C        0.44430000      -2.92410000      -0.74370000
C       -0.13460000      -1.92870000      -1.81350000
O       -1.53180000      -1.75230000      -1.90420000
C        0.63200000      -0.75730000      -1.13990000
H        0.89980000       1.99300000      -0.28110000
H       -0.83560000       1.90680000      -0.61810000
H       -0.26070000       1.92220000       1.05400000
H       -1.27570000      -0.27040000       1.76300000
H       -1.45390000      -1.60000000       0.53840000
H        1.19170000      -0.72880000       1.96550000
H        2.35320000      -1.88350000      -0.09000000
H        1.04850000      -3.72700000      -1.17430000
H       -0.30290000      -3.36790000      -0.08120000
H        0.29010000      -2.14010000      -2.80550000
H       -1.90280000      -2.52530000      -2.34150000
H        1.24970000      -0.14280000      -1.79680000
