18
Properties=species:S:1:pos:R:3 gdb_116000=T pbc="F F F"
O        0.03130000       1.43080000      -0.44390000
C        0.05470000       0.07030000      -0.11260000
C       -1.35220000      -0.53580000       0.04630000
C       -1.33890000      -2.09070000       0.08500000
N       -2.36210000      -2.42740000       1.08990000
C       -2.62760000      -1.33300000       1.84670000
C       -2.08810000      -0.19020000       1.34030000
C       -2.25150000       1.09370000       1.94940000
O       -1.74250000       2.14700000       1.57590000
H       -0.51630000       1.87950000       0.22820000
H        0.56940000      -0.44750000      -0.93300000
H        0.63240000      -0.13360000       0.80740000
H       -1.94110000      -0.18780000      -0.81230000
H       -1.57550000      -2.54400000      -0.88030000
H       -0.35500000      -2.46330000       0.40710000
H       -2.42370000      -3.35620000       1.47470000
H       -3.23470000      -1.42900000       2.73960000
H       -2.89790000       1.09290000       2.85330000
