19
Properties=species:S:1:pos:R:3 gdb_127148=T pbc="F F F"
C        0.36690000       1.29830000      -0.16260000
N       -0.01550000      -0.09420000       0.03070000
C        0.56150000      -0.63180000       1.25310000
C       -1.46540000      -0.27720000      -0.00880000
C       -2.02380000      -0.10190000      -1.38810000
C       -1.50740000      -0.50550000      -2.59870000
N       -2.44540000      -0.12170000      -3.49520000
N       -3.48590000       0.48510000      -2.89650000
N       -3.22800000       0.49860000      -1.61970000
H        1.45710000       1.37600000      -0.22140000
H       -0.05470000       1.67600000      -1.09750000
H        0.02010000       1.95540000       0.65760000
H        0.20900000      -0.11650000       2.16710000
H        0.31520000      -1.69420000       1.34740000
H        1.65140000      -0.53720000       1.21650000
H       -1.67710000      -1.29520000       0.34120000
H       -2.00650000       0.40490000       0.67240000
H       -0.59190000      -1.00020000      -2.87260000
H       -2.44450000      -0.22250000      -4.49770000
