18
Properties=species:S:1:pos:R:3 gdb_109644=T pbc="F F F"
N       -0.22290000       1.34290000       0.26770000
C       -0.17160000      -0.08310000       0.06070000
C       -1.45430000      -0.83370000      -0.09320000
C       -2.76630000      -0.07350000       0.03790000
O       -2.90140000       0.46780000       1.33890000
C       -0.53700000      -0.67570000      -1.32000000
N       -0.91280000       0.28870000      -2.32400000
C        0.18110000      -1.84590000      -1.76390000
N        0.77120000      -2.76920000      -2.13980000
H        0.71610000       1.71850000       0.34990000
H       -0.64950000       1.78100000      -0.54650000
H        0.63140000      -0.57320000       0.59930000
H       -1.46240000      -1.83300000       0.32960000
H       -2.83760000       0.70270000      -0.73540000
H       -3.61060000      -0.75480000      -0.10610000
H       -2.14050000       1.05390000       1.45990000
H       -0.11130000       0.53000000      -2.89920000
H       -1.62640000      -0.08400000      -2.94260000
