20
Properties=species:S:1:pos:R:3 gdb_90362=T pbc="F F F"
C        0.44690000       1.55930000       0.05560000
C        0.13760000       0.06980000       0.04820000
C        0.94290000      -0.86190000      -0.91520000
C        1.35270000      -1.76780000       0.28980000
C        2.59470000      -1.26430000       0.97570000
N        3.81810000      -1.53430000       0.90940000
O        1.92530000      -0.33520000       1.75470000
C        0.61400000      -0.78920000       1.25320000
C       -0.31690000      -1.14540000       2.37810000
H        1.50890000       1.73810000       0.24370000
H        0.18850000       2.01100000      -0.90790000
H       -0.12360000       2.08120000       0.83170000
H       -0.93790000      -0.08680000      -0.09120000
H        0.32500000      -1.37540000      -1.65380000
H        1.78550000      -0.39570000      -1.43080000
H        1.18930000      -2.84150000       0.22720000
H        4.36060000      -0.94540000       1.54420000
H       -0.57740000      -0.25250000       2.95730000
H       -1.24260000      -1.57780000       1.98610000
H        0.14670000      -1.86780000       3.05620000
