17
Properties=species:S:1:pos:R:3 gdb_97095=T pbc="F F F"
C       -0.11230000       1.35390000      -0.01660000
N       -0.20180000      -0.08910000      -0.19620000
C        0.55530000      -0.65780000      -1.00750000
O        1.55550000      -0.16480000      -1.82890000
C        1.94870000      -1.50260000      -2.24760000
C        0.79520000      -2.13070000      -1.40490000
N        1.23110000      -3.06650000      -0.37760000
C       -0.28810000      -2.69970000      -2.19210000
C       -1.18670000      -3.15930000      -2.84310000
H        0.73240000       1.81770000      -0.53900000
H       -1.03970000       1.81650000      -0.37230000
H       -0.03430000       1.57520000       1.05300000
H        1.88110000      -1.62130000      -3.32950000
H        2.94690000      -1.75890000      -1.88310000
H        1.80130000      -2.57660000       0.30730000
H        0.41830000      -3.41610000       0.12110000
H       -1.98480000      -3.56410000      -3.41530000
