15
Properties=species:S:1:pos:R:3 gdb_48010=T pbc="F F F"
O       -0.48380000       0.48800000      -0.84610000
C       -0.01150000       1.09610000       0.08610000
C        1.18590000       1.89430000       0.01850000
C        2.18460000       2.57460000      -0.00130000
C        3.37870000       3.39930000      -0.01670000
O        4.07630000       3.44130000      -1.29720000
C        4.03820000       4.87370000      -1.28330000
C        2.63100000       5.36900000      -1.34090000
C        3.21910000       4.92730000      -0.01640000
H       -0.48420000       1.07990000       1.08940000
H        4.07520000       3.06180000       0.76080000
H        4.92460000       5.40350000      -1.60910000
H        2.51700000       6.44470000      -1.43250000
H        1.87090000       4.77620000      -1.84060000
H        3.28340000       5.55570000       0.86020000
