17
Properties=species:S:1:pos:R:3 gdb_66874=T pbc="F F F"
C       -0.05290000       1.52640000       0.02710000
C       -0.04560000       0.02770000       0.03870000
C       -0.25600000      -0.82200000      -1.25690000
N        0.80860000      -1.76180000      -1.35210000
C        0.84540000      -2.30400000      -0.18720000
N        1.91160000      -1.76710000       0.68230000
C        0.68610000      -0.88770000       1.10260000
C       -0.35890000      -1.96350000       0.76170000
C       -1.18450000      -0.99000000      -0.05210000
H        0.94390000       1.92040000      -0.20170000
H       -0.74170000       1.90530000      -0.73500000
H       -0.36900000       1.94490000       0.98970000
H       -0.59320000      -0.30250000      -2.14680000
H        2.04650000      -2.36600000       1.50360000
H        0.78430000      -0.46030000       2.10120000
H       -0.72800000      -2.69600000       1.47310000
H       -2.25660000      -0.85500000      -0.08210000
