16
Properties=species:S:1:pos:R:3 gdb_125008=T pbc="F F F"
C        0.04350000       1.50210000      -0.03460000
C       -0.00330000       0.00130000      -0.06350000
C       -1.18470000      -0.69290000       0.01170000
N       -2.42460000      -0.14930000       0.08930000
C       -1.14510000      -2.15140000      -0.01510000
N       -2.23070000      -2.83520000       0.07680000
N        0.14760000      -2.62050000      -0.13850000
N        1.30700000      -1.90000000      -0.21990000
N        1.21410000      -0.63640000      -0.18010000
H        1.07800000       1.83460000      -0.13050000
H       -0.54040000       1.94000000      -0.85400000
H       -0.35920000       1.90540000       0.90430000
H       -2.54290000       0.81280000       0.35300000
H       -3.16800000      -0.80560000       0.28390000
H       -2.06720000      -3.84060000       0.05260000
H        0.31210000      -3.61620000      -0.16870000
