16
Properties=species:S:1:pos:R:3 gdb_54136=T pbc="F F F"
C       -0.32640000       1.73110000      -0.30460000
C       -0.05880000       0.25310000      -0.10340000
C        0.82760000      -0.45760000      -1.15430000
C        1.80710000      -0.61850000       0.00270000
O        2.87900000      -1.08670000       0.20140000
O        0.99490000       0.02440000       0.91420000
C       -1.34800000      -0.50780000       0.22410000
N       -1.32000000      -1.21810000       1.37700000
O       -2.29410000      -0.45650000      -0.53830000
H        0.58300000       2.24820000      -0.62200000
H       -1.10130000       1.85130000      -1.06470000
H       -0.67950000       2.18620000       0.62530000
H        0.44220000      -1.39360000      -1.56020000
H        1.19100000       0.17290000      -1.96750000
H       -0.52210000      -1.17690000       1.98800000
H       -2.14800000      -1.71810000       1.65590000
