19
Properties=species:S:1:pos:R:3 gdb_127034=T pbc="F F F"
C       -0.03940000       1.47090000      -0.05240000
C       -0.01500000      -0.04570000      -0.01850000
O        0.67000000      -0.49510000      -1.19160000
C        0.78830000      -1.82740000      -1.33610000
N        0.31240000      -2.70310000      -0.46150000
N        0.65190000      -3.90200000      -0.99970000
C        1.31900000      -3.78190000      -2.17280000
C        1.43740000      -2.43560000      -2.44380000
C        2.08270000      -1.75180000      -3.60640000
H        0.97670000       1.87570000      -0.06290000
H       -0.56150000       1.83130000      -0.94340000
H       -0.55640000       1.85640000       0.83140000
H        0.50320000      -0.42310000       0.87160000
H       -1.02740000      -0.46740000      -0.00520000
H        0.39730000      -4.74150000      -0.51180000
H        1.65740000      -4.64550000      -2.72470000
H        1.36700000      -1.13120000      -4.15750000
H        2.89340000      -1.08820000      -3.28490000
H        2.50350000      -2.47860000      -4.30680000
