10
Properties=species:S:1:pos:R:3 gdb_42=T pbc="F F F"
O       -0.01420000       1.42640000      -0.05420000
C       -0.00390000       0.00720000       0.03500000
C       -1.42320000      -0.55560000      -0.01260000
O       -2.11230000      -0.10560000      -1.17230000
H       -0.18990000       1.64150000      -0.97560000
H        0.59660000      -0.43320000      -0.77410000
H        0.47310000      -0.24900000       0.98750000
H       -1.39490000      -1.64980000      -0.06280000
H       -1.96500000      -0.27220000       0.90130000
H       -2.35930000       0.80940000      -1.00610000
