13
Properties=species:S:1:pos:R:3 gdb_129497=T pbc="F F F"
N       -0.10930000       1.27510000       0.05720000
C        0.04900000      -0.06610000      -0.01730000
O        1.08350000      -0.67500000      -0.08360000
N       -1.22220000      -0.74760000      -0.00990000
N       -2.38960000      -0.09950000       0.06460000
C       -3.29940000      -1.06080000       0.04490000
C       -2.61790000      -2.29740000      -0.04410000
O       -3.17400000      -3.51560000      -0.08960000
N       -1.31520000      -2.08580000      -0.07770000
H        0.71960000       1.84150000       0.06260000
H       -1.02630000       1.68460000       0.11270000
H       -4.35580000      -0.85340000       0.09220000
H       -2.45930000      -4.16300000      -0.14840000
