18
Properties=species:S:1:pos:R:3 gdb_95740=T pbc="F F F"
C       -0.07310000       1.55740000      -0.02590000
C        0.01030000       0.02400000      -0.00880000
C        0.74390000      -0.51810000      -1.24250000
O        0.99190000      -1.90820000      -1.12310000
C        1.90410000      -2.21270000      -0.09600000
C        1.58140000      -1.48560000       1.19860000
C        0.69500000      -0.48140000       1.23210000
C        2.27210000      -1.92020000       2.36830000
N        2.85690000      -2.30280000       3.29250000
H        0.92520000       2.00740000      -0.00820000
H       -0.58780000       1.90860000      -0.92580000
H       -0.62480000       1.93000000       0.84250000
H       -1.01470000      -0.37550000      -0.01750000
H        0.14210000      -0.38960000      -2.14600000
H        1.68950000       0.03250000      -1.38120000
H        1.85190000      -3.29490000       0.06040000
H        2.93930000      -1.97600000      -0.39840000
H        0.46560000       0.00580000       2.17600000
