19
Properties=species:S:1:pos:R:3 gdb_109128=T pbc="F F F"
C        0.12790000       1.54810000       0.25090000
C        0.01690000       0.04910000      -0.08170000
C       -1.40020000      -0.46200000      -0.12280000
C       -1.97890000      -0.96490000      -1.20980000
C       -3.40470000      -1.42860000      -1.20280000
C       -3.95710000      -1.75800000       0.17550000
O       -4.93190000      -2.43940000       0.33950000
O       -3.30760000      -1.26650000       1.25500000
C       -2.19190000      -0.37250000       1.15410000
H        1.17410000       1.86720000       0.24120000
H       -0.41870000       2.15230000      -0.48000000
H       -0.27530000       1.77580000       1.24300000
H        0.49000000      -0.14570000      -1.04980000
H        0.58660000      -0.52110000       0.66570000
H       -1.42890000      -1.04070000      -2.14430000
H       -4.06760000      -0.66730000      -1.64090000
H       -3.55100000      -2.32270000      -1.81610000
H       -1.55800000      -0.61210000       2.01550000
H       -2.56450000       0.64990000       1.31180000
