13
Properties=species:S:1:pos:R:3 gdb_19895=T pbc="F F F"
N       -0.15480000      -1.21330000      -0.12010000
C        0.02370000      -0.07880000       0.01540000
C        0.09890000       1.36040000       0.08590000
C        0.48970000       2.21380000       1.27520000
C        1.72120000       1.65300000       2.05370000
O        2.14700000       0.43340000       1.44320000
C        2.53290000       1.67010000       0.84060000
C        1.33610000       2.23160000       0.01010000
H       -0.72570000       1.81520000      -0.45940000
H       -0.17230000       2.97820000       1.65940000
H        1.95880000       1.81330000       3.09730000
H        3.58600000       1.84750000       0.66540000
H        1.42870000       3.01180000      -0.73340000
