17
Properties=species:S:1:pos:R:3 gdb_49983=T pbc="F F F"
O       -0.18620000       0.15240000      -0.68270000
C       -0.04310000       1.21590000      -0.13300000
C        1.23800000       1.94890000      -0.02810000
C        1.18540000       3.47710000       0.00250000
C        1.54210000       2.73380000       1.23530000
C        0.76060000       2.71620000       2.56750000
C        2.12180000       2.84720000       3.28190000
O        2.44540000       2.98560000       4.42280000
C        2.90390000       2.75890000       1.95480000
H       -0.90560000       1.73730000       0.34780000
H        2.07250000       1.47650000      -0.53620000
H        1.96280000       4.00290000      -0.54130000
H        0.20260000       3.93650000      -0.05540000
H        0.07060000       3.54670000       2.74470000
H        0.24800000       1.77910000       2.80770000
H        3.49510000       1.84080000       1.87050000
H        3.55410000       3.61440000       1.74760000
