14
Properties=species:S:1:pos:R:3 gdb_125601=T pbc="F F F"
C        0.08690000       1.47300000      -0.00610000
C        0.00980000      -0.02070000       0.00180000
N       -0.11700000      -0.65380000      -1.11070000
N       -0.18310000      -2.01160000      -1.05420000
C       -0.13040000      -2.80730000       0.06340000
O       -0.19340000      -4.00260000       0.05310000
O        0.00490000      -2.11180000       1.23700000
C        0.08160000      -0.72730000       1.29080000
N        0.20600000      -0.12090000       2.39180000
H        1.02380000       1.81030000       0.44770000
H        0.01960000       1.83870000      -1.03140000
H       -0.72110000       1.90120000       0.59470000
H       -0.28220000      -2.47840000      -1.94150000
H        0.23760000      -0.77840000       3.17260000
