20
Properties=species:S:1:pos:R:3 gdb_65322=T pbc="F F F"
C        0.47120000       1.35000000      -0.96770000
C        0.03140000       0.09830000      -0.23620000
N        1.00800000      -1.00420000      -0.27930000
C        0.75270000      -0.31570000       1.01450000
C        1.81860000       0.45620000       1.59270000
C        2.68760000       1.10560000       2.11150000
C       -1.43140000      -0.21380000      -0.39710000
C       -2.22140000      -1.11050000       0.52360000
C       -2.47490000       0.37660000       0.51940000
H        1.54110000       1.51920000      -0.83960000
H        0.26360000       1.25170000      -2.03890000
H       -0.07100000       2.22520000      -0.59550000
H        0.51210000      -1.89410000      -0.26370000
H        0.17180000      -0.86630000       1.74990000
H        3.46220000       1.67610000       2.56080000
H       -1.71990000      -0.27160000      -1.44490000
H       -2.96130000      -1.76120000       0.07090000
H       -1.74220000      -1.53960000       1.39660000
H       -2.12040000       0.94180000       1.37480000
H       -3.39790000       0.74810000       0.08840000
