22
Properties=species:S:1:pos:R:3 gdb_58651=T pbc="F F F"
C        0.89980000      -2.21790000       1.34420000
C        0.14200000      -1.37030000       0.31120000
C       -0.27320000      -0.01440000       0.90030000
C        0.97860000      -1.20110000      -0.96520000
C        0.94300000      -2.28950000      -2.00410000
N        0.36690000      -0.99210000      -2.29610000
C       -1.07590000      -0.89320000      -2.45340000
C        2.21600000      -0.47210000      -0.78380000
C        3.24810000       0.12010000      -0.60800000
H        1.15020000      -3.20510000       0.94340000
H        1.83320000      -1.72860000       1.63950000
H        0.29220000      -2.36000000       2.24360000
H       -0.76470000      -1.91920000       0.03470000
H        0.60770000       0.57220000       1.17860000
H       -0.85490000       0.57560000       0.18580000
H       -0.88440000      -0.15620000       1.79730000
H        1.84230000      -2.55400000      -2.55360000
H        0.26530000      -3.12060000      -1.80250000
H       -1.66230000      -1.59330000      -1.83930000
H       -1.39970000       0.12650000      -2.22460000
H       -1.31400000      -1.09360000      -3.50310000
H        4.15820000       0.64940000      -0.46960000
