22
Properties=species:S:1:pos:R:3 gdb_92083=T pbc="F F F"
C       -0.01490000       1.55480000      -0.01260000
C        0.07030000       0.02680000       0.01260000
C        0.82780000      -0.52090000      -1.21200000
C        1.07740000      -2.02860000      -1.14810000
C        2.31030000      -2.55420000      -0.49020000
N        1.00200000      -2.76290000       0.12400000
C        0.64550000      -2.03510000       1.33800000
C        0.71730000      -0.49960000       1.29880000
O        2.05770000      -0.00260000       1.34170000
H        0.98260000       1.99610000       0.06450000
H       -0.47550000       1.90670000      -0.94160000
H       -0.61490000       1.93150000       0.82300000
H       -0.94950000      -0.38290000      -0.00130000
H        0.25460000      -0.29150000      -2.11600000
H        1.77870000       0.01390000      -1.30170000
H        0.66920000      -2.59640000      -1.98200000
H        2.79440000      -3.45590000      -0.85930000
H        2.97480000      -1.81340000      -0.05430000
H       -0.39210000      -2.30350000       1.58130000
H        1.26560000      -2.41550000       2.16110000
H        0.15350000      -0.11690000       2.16600000
H        2.46400000      -0.31520000       2.15600000
