18
Properties=species:S:1:pos:R:3 gdb_53597=T pbc="F F F"
C        0.64800000       0.17290000      -1.34670000
C        0.19680000      -0.73090000      -0.29790000
C       -0.16070000      -1.47970000       0.57660000
C       -0.63350000      -2.35770000       1.64880000
N       -1.53040000      -3.47640000       1.29740000
C       -2.14980000      -3.56030000       0.00230000
C       -1.11840000      -4.58020000       0.41650000
C        0.18110000      -4.60670000      -0.30750000
O        0.77840000      -5.63140000      -0.53830000
H        1.56040000       0.69860000      -1.04490000
H        0.87090000      -0.37080000      -2.27110000
H       -0.11080000       0.92830000      -1.57750000
H        0.21620000      -2.78090000       2.19680000
H       -1.19100000      -1.74950000       2.37210000
H       -3.19630000      -3.85280000      -0.01700000
H       -1.84920000      -2.84020000      -0.75720000
H       -1.44400000      -5.56210000       0.75150000
H        0.56960000      -3.62050000      -0.63250000
