16
Properties=species:S:1:pos:R:3 gdb_13465=T pbc="F F F"
C       -0.03360000       1.47800000       0.00900000
C        0.05560000      -0.02320000       0.00280000
N        1.18380000      -0.61710000      -0.00930000
N       -1.17100000      -0.69250000       0.01100000
C       -1.46580000      -2.13480000       0.00810000
C       -2.97600000      -1.76900000       0.02310000
C       -2.51440000      -0.30000000       0.02370000
O       -3.03780000       0.77820000       0.03240000
H        0.97760000       1.88320000       0.00130000
H       -0.59010000       1.83870000      -0.86070000
H       -0.57410000       1.83230000       0.89130000
H        1.07620000      -1.63360000      -0.01200000
H       -1.11510000      -2.64830000      -0.89170000
H       -1.09910000      -2.65510000       0.89760000
H       -3.54110000      -2.05830000      -0.86430000
H       -3.52490000      -2.06420000       0.91870000
