18
Properties=species:S:1:pos:R:3 gdb_91052=T pbc="F F F"
O        0.08100000       1.43710000      -0.13260000
C        0.04220000       0.03880000       0.01350000
C        0.31990000      -0.60650000       1.42220000
C       -1.06970000      -1.28870000       1.37790000
N       -2.26290000      -0.62250000       2.04860000
C       -2.12730000       0.84800000       1.96090000
C       -2.52320000       0.12750000       0.74480000
C       -1.37890000      -0.59230000       0.01860000
O       -1.85660000      -1.21160000      -1.13430000
H        1.00160000       1.71640000      -0.16080000
H        0.65070000      -0.45400000      -0.76240000
H        1.14910000      -1.31860000       1.41810000
H        0.48220000       0.10440000       2.23460000
H       -1.11610000      -2.36790000       1.51980000
H       -2.91810000       1.35040000       2.51100000
H       -1.16430000       1.33950000       2.02250000
H       -3.51400000       0.17820000       0.30520000
H       -1.16440000      -1.77720000      -1.49240000
