12
Properties=species:S:1:pos:R:3 gdb_14607=T pbc="F F F"
O        0.37960000       0.09160000      -0.19180000
C        0.43180000       1.27760000      -0.28410000
O        0.67330000       2.07670000       0.78230000
C        0.76430000       3.48460000       0.53050000
C        2.12530000       3.91630000       0.25050000
C        3.24920000       4.28800000       0.01490000
C        4.60470000       4.70090000      -0.26230000
O        4.93350000       5.84410000      -0.47360000
H        0.28060000       1.84580000      -1.22250000
H        0.10310000       3.77150000      -0.29840000
H        0.38960000       3.97640000       1.43290000
H        5.33730000       3.86960000      -0.26670000
