18
Properties=species:S:1:pos:R:3 gdb_30831=T pbc="F F F"
C        0.33040000       1.54590000      -0.18990000
C       -0.03150000       0.06850000       0.04530000
C        0.55540000      -0.50480000       1.28230000
C        0.06480000      -0.99890000       2.44700000
O       -1.22930000      -1.11640000       2.81480000
N        1.09050000      -1.40050000       3.27910000
C        2.17130000      -1.14040000       2.60380000
C        3.58270000      -1.36770000       3.00780000
O        1.93650000      -0.59920000       1.39110000
H        1.41450000       1.67360000      -0.26050000
H       -0.11590000       1.91050000      -1.12020000
H       -0.02970000       2.17160000       0.63230000
H       -1.11770000      -0.04470000       0.12330000
H        0.28100000      -0.52290000      -0.82610000
H       -1.22920000      -1.50970000       3.69530000
H        4.08920000      -2.04220000       2.30940000
H        4.14530000      -0.42830000       3.02300000
H        3.60110000      -1.80900000       4.00450000
