23
Properties=species:S:1:pos:R:3 gdb_110102=T pbc="F F F"
C       -0.16670000       1.53890000       0.07730000
C        0.16350000       0.05600000      -0.13290000
C        0.82860000      -0.55380000       1.08540000
C        0.01730000      -1.11180000       2.23130000
O       -1.36920000      -1.08210000       2.08680000
C       -2.03680000      -1.97890000       2.95160000
C        0.86600000      -2.03680000       1.37120000
C        0.22730000      -3.04570000       0.44560000
O        2.09610000      -2.44480000       1.92260000
H        0.73510000       2.11820000       0.30460000
H       -0.62530000       1.97240000      -0.81700000
H       -0.86420000       1.66210000       0.91130000
H       -0.75750000      -0.48400000      -0.36740000
H        0.82720000      -0.05780000      -0.99950000
H        1.73500000      -0.04320000       1.40230000
H        0.37330000      -0.92630000       3.24670000
H       -3.10870000      -1.85970000       2.77640000
H       -1.75540000      -3.02340000       2.75580000
H       -1.82170000      -1.75410000       4.00730000
H       -0.76900000      -2.72780000       0.13310000
H        0.84410000      -3.20190000      -0.44530000
H        0.12370000      -4.01390000       0.95180000
H        1.92870000      -3.21490000       2.47830000
