20
Properties=species:S:1:pos:R:3 gdb_119937=T pbc="F F F"
C       -1.76800000       0.81010000      -0.66720000
N       -0.79230000      -0.25890000      -0.49690000
C        0.38690000      -0.34080000      -1.35320000
C        0.70060000       0.61760000      -2.48120000
C       -0.01160000       0.24330000      -3.77830000
O        0.43090000       1.14260000      -4.78230000
C        0.52170000       0.05930000       0.09450000
C        0.88610000       1.40360000       0.44940000
C        1.19070000       2.51840000       0.78550000
H       -1.34810000       1.79270000      -0.91710000
H       -2.47120000       0.51590000      -1.45250000
H       -2.32870000       0.91450000       0.26660000
H        0.65850000      -1.37370000      -1.57650000
H        0.45480000       1.64830000      -2.21610000
H        1.78140000       0.59700000      -2.66660000
H        0.22450000      -0.80070000      -4.04280000
H       -1.10280000       0.30310000      -3.64010000
H       -0.01660000       0.92130000      -5.60400000
H        0.86980000      -0.69220000       0.80090000
H        1.46680000       3.50150000       1.07700000
