16
Properties=species:S:1:pos:R:3 gdb_66694=T pbc="F F F"
C        0.07270000       1.51520000      -0.01200000
C       -0.00770000       0.02670000      -0.02730000
C        0.39180000      -1.03670000      -0.99690000
C        0.94540000      -1.83780000       0.20170000
C       -0.19860000      -2.05420000       1.13060000
N        0.56770000      -0.76950000       1.16240000
C       -1.48320000      -1.86650000       0.36870000
O       -2.54620000      -2.39970000       0.54680000
C       -1.08680000      -0.83670000      -0.64420000
H        1.09690000       1.84200000       0.19400000
H       -0.23530000       1.92920000      -0.97680000
H       -0.57830000       1.93150000       0.76440000
H        0.77890000      -0.97940000      -2.00400000
H        1.89510000      -2.35610000       0.26030000
H       -0.14080000      -2.67880000       2.01190000
H       -1.78210000      -0.43740000      -1.36830000
