20
Properties=species:S:1:pos:R:3 gdb_79585=T pbc="F F F"
C       -0.12640000       1.50750000      -0.03890000
N        0.10430000       0.07460000       0.10130000
C        1.39910000      -0.52580000      -0.15740000
C        2.57290000       0.31820000       0.30150000
C        3.28380000      -0.37790000       1.44570000
C        1.98200000       0.33990000       1.70520000
O        1.89820000       1.44700000       2.53730000
C        0.79730000      -0.50480000       1.24090000
C        0.12730000      -1.58080000       2.04680000
H        0.70180000       2.14110000       0.30060000
H       -0.32660000       1.72500000      -1.09330000
H       -1.01820000       1.77520000       0.53620000
H        1.45320000      -1.36670000      -0.84160000
H        3.02860000       1.14330000      -0.23190000
H        3.34830000      -1.46270000       1.47550000
H        4.16390000       0.13870000       1.82010000
H        2.06460000       1.16110000       3.44170000
H       -0.51030000      -1.14500000       2.82570000
H       -0.50630000      -2.20010000       1.40740000
H        0.86470000      -2.22300000       2.54090000
