18
Properties=species:S:1:pos:R:3 gdb_109453=T pbc="F F F"
C       -0.22360000       1.34710000       0.20260000
O        0.43020000       0.10810000      -0.03200000
C        0.84860000      -0.51960000       1.14030000
C       -0.19410000      -1.29370000       1.95100000
N       -1.25520000      -0.99350000       2.54690000
O        0.44080000      -2.50960000       1.78490000
C        1.44400000      -1.90530000       0.92740000
C        1.90640000      -2.54910000      -0.32580000
C        2.84390000      -2.39700000       0.86910000
H        0.44410000       2.05690000       0.71450000
H       -0.49140000       1.75070000      -0.77590000
H       -1.12810000       1.21400000       0.80710000
H        1.46020000       0.15010000       1.76420000
H       -1.70430000      -1.81660000       2.95350000
H        1.53200000      -3.54370000      -0.54070000
H        2.04660000      -1.90990000      -1.19030000
H        3.64500000      -1.66680000       0.81900000
H        3.07760000      -3.29260000       1.43400000
