19
Properties=species:S:1:pos:R:3 gdb_37808=T pbc="F F F"
C       -0.01630000       1.49830000      -0.11660000
C        1.37890000       2.13050000       0.00280000
C        2.09930000       1.90450000       1.32800000
C        1.53080000       1.17570000       2.54370000
O        0.40200000       0.35130000       2.39630000
C        0.65530000      -0.52050000       1.29970000
C       -0.04580000      -0.02810000       0.02870000
O        2.07030000      -0.57680000       1.12320000
C        2.62950000       0.54770000       1.75220000
H       -0.66810000       1.93360000       0.64780000
H       -0.44340000       1.77150000      -1.08780000
H        2.01920000       1.76940000      -0.81300000
H        1.27440000       3.21100000      -0.14650000
H        2.76130000       2.71780000       1.61990000
H        1.61710000       1.57730000       3.54550000
H        0.31240000      -1.52530000       1.57340000
H       -1.08760000      -0.36920000       0.04990000
H        0.43740000      -0.52270000      -0.82160000
H        3.64750000       0.37980000       2.08140000
