25
Properties=species:S:1:pos:R:3 gdb_58505=T pbc="F F F"
C        0.08320000       1.52390000      -0.07990000
C        0.03430000      -0.00150000       0.09790000
C        0.77460000      -0.43360000       1.37220000
C       -1.40210000      -0.56480000       0.02800000
C       -2.33150000       0.00250000       1.10610000
C       -2.10190000      -0.50820000      -1.38470000
C       -2.28270000      -2.02990000      -1.34540000
C       -0.94600000      -2.70830000      -1.26200000
C       -1.53350000      -2.10630000      -0.01530000
H        1.11770000       1.86590000      -0.18980000
H       -0.46880000       1.84490000      -0.96960000
H       -0.34150000       2.04690000       0.78350000
H        0.57910000      -0.43610000      -0.75030000
H        0.33460000       0.01430000       2.26980000
H        0.75500000      -1.52130000       1.49380000
H        1.82340000      -0.12080000       1.33430000
H       -2.45470000       1.08540000       1.00640000
H       -3.32390000      -0.45340000       1.02660000
H       -1.95780000      -0.20420000       2.11460000
H       -3.03930000       0.05270000      -1.36270000
H       -1.49220000      -0.13180000      -2.21390000
H       -3.17430000      -2.56310000      -1.65220000
H       -0.97100000      -3.79320000      -1.29650000
H       -0.07540000      -2.27600000      -1.74920000
H       -1.75800000      -2.71880000       0.85150000
