20
Properties=species:S:1:pos:R:3 gdb_99119=T pbc="F F F"
C       -3.07760000      -2.44280000      -0.35320000
O       -1.68780000      -2.11390000      -0.34200000
C       -0.95230000      -2.73890000      -1.30050000
O       -1.40640000      -3.50810000      -2.11690000
N        0.35910000      -2.37860000      -1.17910000
C        1.33880000      -2.72950000      -2.17390000
C        1.22980000      -1.97340000      -3.48400000
C        2.69740000      -3.09850000      -1.62950000
C        1.78700000      -4.16700000      -2.18460000
H       -3.53450000      -2.17770000      -1.31030000
H       -3.22800000      -3.51170000      -0.17950000
H       -3.52560000      -1.86220000       0.45410000
H        0.55680000      -1.61280000      -0.55380000
H        1.33990000      -0.89430000      -3.32610000
H        2.00570000      -2.29230000      -4.18620000
H        0.25460000      -2.15940000      -3.94350000
H        3.56640000      -2.80320000      -2.20710000
H        2.83690000      -3.06380000      -0.55470000
H        1.30840000      -4.84130000      -1.48580000
H        2.03020000      -4.60800000      -3.14450000
