12
Properties=species:S:1:pos:R:3 gdb_131278=T pbc="F F F"
O        0.08260000       1.29300000       0.15360000
C        0.07120000      -0.03710000       0.01150000
N        0.09660000      -0.71050000      -1.10180000
C        0.06800000      -2.02780000      -0.66190000
C        0.02600000      -2.09400000       0.71490000
N        0.00170000      -3.40170000       1.01320000
N        0.02870000      -4.12360000      -0.17260000
N        0.06840000      -3.28590000      -1.16910000
N        0.02740000      -0.79900000       1.17650000
H        0.11340000       1.66380000      -0.73820000
H       -0.03040000      -3.90050000       1.88530000
H        0.00340000      -0.43750000       2.11390000
