14
Properties=species:S:1:pos:R:3 gdb_28840=T pbc="F F F"
N        0.10290000       1.30180000       0.47060000
C        0.00240000      -0.03470000       0.11860000
C       -1.19310000      -0.70930000       0.19500000
N       -1.48950000      -1.96460000      -0.24630000
C       -0.66500000      -2.93890000      -0.39640000
C        0.75180000      -2.93220000       0.07410000
O        1.20530000      -3.80600000       0.77710000
N        1.52240000      -1.89610000      -0.44140000
C        1.20030000      -0.65500000      -0.41990000
H        0.88060000       1.81300000       0.08200000
H       -0.75270000       1.83560000       0.48400000
H       -2.06430000      -0.14800000       0.53030000
H       -1.04020000      -3.87420000      -0.81200000
H        1.92030000       0.03490000      -0.87330000
