17
Properties=species:S:1:pos:R:3 gdb_5919=T pbc="F F F"
C        0.26870000       1.56000000       0.12150000
C        0.04430000       0.03330000       0.02510000
C        0.70710000      -0.68830000       1.21890000
C       -1.48050000      -0.31120000      -0.05710000
C       -2.26580000       0.27060000       1.10530000
O       -2.36210000      -0.26030000       2.18240000
C        0.66130000      -0.45090000      -1.22110000
N        1.14300000      -0.82900000      -2.20160000
H        1.33600000       1.79150000       0.08770000
H       -0.22060000       2.08800000      -0.70160000
H       -0.13000000       1.93910000       1.06730000
H        0.22220000      -0.39160000       2.15140000
H        0.61780000      -1.77290000       1.11850000
H        1.76890000      -0.43440000       1.27460000
H       -1.88480000       0.07700000      -0.99710000
H       -1.59830000      -1.39830000      -0.04440000
H       -2.75870000       1.24840000       0.90860000
