17
Properties=species:S:1:pos:R:3 gdb_19796=T pbc="F F F"
O       -0.19770000       1.45140000      -0.18080000
C       -0.01500000       0.04580000      -0.03550000
C       -1.37500000      -0.65110000       0.03920000
C       -2.34910000      -0.36360000      -1.07760000
C       -1.45870000      -1.57840000      -1.14700000
N       -0.18610000      -1.59550000      -1.87800000
C        0.20660000      -0.37630000      -2.59460000
C        0.70670000      -0.62630000      -1.21770000
H        0.66970000       1.84870000      -0.30920000
H        0.54720000      -0.16300000       0.88620000
H       -1.75380000      -0.92360000       1.01700000
H       -3.39800000      -0.55060000      -0.87240000
H       -2.17620000       0.49970000      -1.70650000
H       -1.91730000      -2.55810000      -1.07650000
H        0.86250000      -0.54900000      -3.44400000
H       -0.51360000       0.42060000      -2.74190000
H        1.73470000      -0.94740000      -1.06250000
