16
Properties=species:S:1:pos:R:3 gdb_123425=T pbc="F F F"
C       -0.07640000       1.53880000      -0.27580000
C       -0.13390000       0.03040000      -0.25100000
C       -0.12830000      -0.69640000       1.06940000
C       -1.38910000      -0.64260000       0.24660000
N        1.28450000       2.04330000      -0.07920000
N        1.79730000       2.35460000       1.10040000
N        3.02690000       2.69560000       0.85600000
N        3.25690000       2.58750000      -0.46530000
N        2.17140000       2.17870000      -1.05110000
H       -0.41810000       1.94270000      -1.23130000
H       -0.67720000       1.97150000       0.52680000
H        0.38520000      -0.44360000      -1.07800000
H        0.41250000      -1.63360000       1.12750000
H       -0.08230000      -0.09970000       1.97400000
H       -2.19960000      -0.01270000       0.59830000
H       -1.71710000      -1.54020000      -0.26450000
