17
Properties=species:S:1:pos:R:3 gdb_84211=T pbc="F F F"
C       -0.45770000       1.54500000      -0.01040000
C        0.06030000       0.11600000      -0.06240000
N        1.17190000       0.04810000      -1.08640000
C        1.95260000      -0.78340000      -0.52660000
C        1.50990000      -1.69130000       0.64770000
C        2.87620000      -1.33250000       1.27320000
C        2.34850000       0.05180000       1.42450000
C        0.84400000      -0.40090000       1.20750000
N        3.18070000      -0.39290000       0.16900000
H        0.36740000       2.24730000       0.13890000
H       -0.95920000       1.80700000      -0.94550000
H       -1.17290000       1.65820000       0.81250000
H       -0.77660000      -0.57470000      -0.25200000
H        1.00580000      -2.64850000       0.56230000
H        3.62820000      -1.88940000       1.81390000
H        2.73710000       0.90750000       1.96050000
H        0.29630000      -0.45530000       2.15300000
