12
Properties=species:S:1:pos:R:3 gdb_129228=T pbc="F F F"
N       -0.12860000       1.25200000      -0.27740000
C       -0.05410000      -0.00410000      -0.07240000
N        1.13430000      -0.76480000      -0.14390000
N        1.46310000      -1.92180000       0.58420000
N        0.66380000      -2.86580000       0.64030000
C       -0.54510000      -2.82380000      -0.16960000
O       -0.66920000      -3.58900000      -1.07930000
N       -1.53730000      -1.95060000       0.27920000
C       -1.30930000      -0.70010000       0.30660000
H        0.76840000       1.67480000      -0.52310000
H        1.96700000      -0.19110000      -0.19480000
H       -2.09900000      -0.02160000       0.62520000
