20
Properties=species:S:1:pos:R:3 gdb_81383=T pbc="F F F"
C       -0.30920000       1.53670000       0.03040000
C        0.07180000       0.05660000       0.01210000
O        0.78690000      -0.29280000      -1.17980000
C        2.20420000      -0.36400000      -1.07540000
C        2.63660000      -0.82370000       0.32450000
N        1.58590000      -1.68580000       0.95200000
C        0.85000000      -0.41530000       1.25190000
C        2.24770000       0.25160000       1.36660000
O        2.85310000       0.10490000       2.62530000
H        0.57130000       2.18500000       0.03790000
H       -0.90060000       1.77930000      -0.85630000
H       -0.90850000       1.76810000       0.91780000
H       -0.85360000      -0.53420000      -0.04430000
H        2.52270000      -1.08070000      -1.84100000
H        2.67450000       0.60460000      -1.31220000
H        3.65840000      -1.21550000       0.34190000
H        1.10240000      -2.29250000       0.29130000
H        0.22170000      -0.42680000       2.14830000
H        2.35780000       1.29850000       1.08030000
H        2.75410000      -0.82550000       2.86480000
