19
Properties=species:S:1:pos:R:3 gdb_38491=T pbc="F F F"
C       -0.05500000       1.46350000       0.04990000
C        1.32040000       0.84480000       0.00700000
C        2.05830000       0.60130000       1.34820000
C        1.26240000      -0.47900000       2.07500000
C       -0.14280000      -0.26690000       2.61810000
C        0.04610000      -0.81850000       1.24200000
O        0.29820000      -2.23110000       1.25630000
C        1.53840000      -1.98430000       1.98250000
C        0.06770000      -0.03670000      -0.03970000
H       -0.40910000       1.91770000       0.96930000
H       -0.39470000       1.98140000      -0.84130000
H        1.92120000       1.02250000      -0.87940000
H        3.07360000       0.24220000       1.15000000
H        2.16220000       1.52430000       1.92950000
H       -0.51340000      -0.92770000       3.39710000
H       -0.46950000       0.76190000       2.70990000
H        2.40730000      -2.22440000       1.35790000
H        1.58670000      -2.55860000       2.91600000
H       -0.25110000      -0.54290000      -0.94270000
