25
Properties=species:S:1:pos:R:3 gdb_107406=T pbc="F F F"
C        0.00870000       1.52680000       0.43490000
C       -0.00240000       0.02700000       0.11190000
C       -1.37640000      -0.50960000      -0.23320000
C       -2.31090000      -0.91110000       0.88650000
C       -1.75000000      -1.96420000      -0.04130000
C       -2.60840000      -2.42540000      -1.20770000
C       -3.02750000      -1.14270000      -1.98940000
C       -4.50480000      -0.76720000      -1.80980000
C       -2.03780000      -0.03130000      -1.52480000
H        1.01560000       1.86770000       0.69610000
H       -0.33160000       2.12150000      -0.41920000
H       -0.65290000       1.75050000       1.27860000
H        0.68370000      -0.17010000      -0.72390000
H        0.39350000      -0.53010000       0.97040000
H       -1.90750000      -0.88140000       1.89440000
H       -3.36380000      -0.65640000       0.83380000
H       -1.03160000      -2.66490000       0.37330000
H       -2.01450000      -3.08490000      -1.85090000
H       -3.48330000      -3.00420000      -0.88820000
H       -2.87950000      -1.31890000      -3.06000000
H       -4.76230000      -0.57210000      -0.76400000
H       -4.75050000       0.13400000      -2.38230000
H       -5.15720000      -1.57340000      -2.16270000
H       -2.54770000       0.93240000      -1.40820000
H       -1.25680000       0.11980000      -2.28060000
