18
Properties=species:S:1:pos:R:3 gdb_54686=T pbc="F F F"
N       -0.04400000       1.34950000       0.04460000
C        0.05350000      -0.01890000      -0.02260000
O        1.13430000      -0.57560000      -0.09850000
C       -1.24880000      -0.76200000      -0.02770000
C       -1.21940000      -2.09760000       0.00300000
C       -2.46800000      -2.92650000       0.05060000
C       -3.66580000      -2.04860000       0.41800000
O       -3.67100000      -0.85940000      -0.35490000
C       -2.56900000      -0.02220000      -0.07670000
H        0.82150000       1.84990000       0.17170000
H       -0.88920000       1.80940000       0.33690000
H       -0.25040000      -2.58800000      -0.00070000
H       -2.63240000      -3.40710000      -0.92380000
H       -2.35730000      -3.74130000       0.77740000
H       -4.61430000      -2.55090000       0.21110000
H       -3.63570000      -1.80550000       1.49300000
H       -2.73590000       0.52180000       0.87430000
H       -2.55610000       0.72640000      -0.87770000
