15
Properties=species:S:1:pos:R:3 gdb_127215=T pbc="F F F"
C       -0.48500000       1.23400000       0.32120000
N       -0.04620000      -0.14070000       0.16190000
C       -0.03000000      -0.80630000      -1.05750000
O       -0.34720000      -0.40390000      -2.14160000
O        0.43160000      -2.06380000      -0.77100000
N        0.69030000      -2.17950000       0.61550000
C        0.39890000      -1.02090000       1.11170000
C        0.50210000      -0.71690000       2.57380000
O       -0.75300000      -0.35700000       3.13090000
H        0.36690000       1.91020000       0.44580000
H       -1.02100000       1.50740000      -0.58900000
H       -1.14090000       1.31160000       1.18940000
H        0.95350000      -1.58700000       3.06500000
H        1.15940000       0.14370000       2.73510000
H       -1.32280000      -1.13380000       3.10310000
