19
Properties=species:S:1:pos:R:3 gdb_41760=T pbc="F F F"
C        0.39850000       1.59760000       0.26610000
O        1.43340000       1.47060000      -0.72500000
C        1.18110000       0.05710000      -0.88200000
C        2.37200000      -0.81400000      -0.49130000
C        2.96130000      -0.52490000       0.86390000
C        2.30900000      -0.66840000       2.02570000
C        0.90760000      -1.05150000       2.16600000
C       -0.09340000      -0.76360000       1.31720000
C       -0.02830000       0.10790000       0.10010000
H        0.80480000       1.84330000       1.25360000
H       -0.35630000       2.34080000      -0.01700000
H        0.89290000      -0.17010000      -1.91840000
H        2.02280000      -1.85730000      -0.53200000
H        3.14340000      -0.70740000      -1.26090000
H        4.00420000      -0.22240000       0.88890000
H        2.85900000      -0.51960000       2.95290000
H        0.65710000      -1.60860000       3.06730000
H       -1.08300000      -1.13780000       1.56880000
H       -0.97150000       0.03140000      -0.44450000
