23
Properties=species:S:1:pos:R:3 gdb_103775=T pbc="F F F"
C        0.08840000       1.45450000      -0.06040000
C       -0.01270000      -0.05000000       0.21830000
C       -1.42690000      -0.58370000       0.09240000
O       -2.34230000      -0.01240000       0.99640000
C       -1.96080000      -1.00130000      -1.26270000
C       -1.68260000      -2.03330000      -0.19660000
C       -0.65360000      -3.17410000      -0.18780000
C       -1.56330000      -3.92600000       0.82950000
C       -2.70130000      -2.89720000       0.55820000
H        1.12010000       1.80560000       0.03410000
H       -0.25690000       1.69460000      -1.07210000
H       -0.51730000       2.02690000       0.65040000
H        0.63900000      -0.59620000      -0.47240000
H        0.35310000      -0.26010000       1.23160000
H       -2.57720000       0.86200000       0.66900000
H       -3.00250000      -0.78230000      -1.47870000
H       -1.29620000      -0.94820000      -2.12090000
H       -0.58160000      -3.68470000      -1.15360000
H        0.35810000      -2.92990000       0.14770000
H       -1.78460000      -4.97090000       0.60180000
H       -1.18260000      -3.86860000       1.85210000
H       -3.16610000      -2.42910000       1.42780000
H       -3.48860000      -3.29360000      -0.09080000
