16
Properties=species:S:1:pos:R:3 gdb_85219=T pbc="F F F"
C       -0.25060000       1.53630000       0.00570000
C        0.07490000       0.06260000      -0.04150000
O        1.39140000      -0.19970000      -0.66770000
C        1.91440000      -0.70080000       0.48820000
O        3.02840000      -1.04910000       0.71430000
C        0.57860000      -0.60960000       1.25390000
O        0.53700000       0.21020000       2.39560000
C        1.24260000      -0.22420000       3.47540000
N        1.18300000       0.43520000       4.54560000
H        0.51570000       2.09160000       0.54990000
H       -0.32780000       1.93260000      -1.01020000
H       -1.20770000       1.68770000       0.51350000
H       -0.68510000      -0.51370000      -0.57380000
H        0.13670000      -1.59370000       1.44860000
H        1.82140000      -1.13440000       3.28400000
H        1.76540000      -0.00140000       5.25720000
