19
Properties=species:S:1:pos:R:3 gdb_61210=T pbc="F F F"
C       -0.02070000       1.55690000      -0.03710000
C        0.07910000       0.02660000       0.01890000
C        0.74570000      -0.51260000      -1.27730000
C        0.75360000      -1.97070000      -1.34270000
N        0.74200000      -3.12530000      -1.38200000
N        0.74280000      -0.45190000       1.22110000
C        2.09590000      -0.02310000       1.54150000
C        0.10290000      -1.31450000       2.07510000
O        0.56210000      -1.74950000       3.10680000
H        0.96160000       2.02510000      -0.15110000
H       -0.63760000       1.86650000      -0.88580000
H       -0.47890000       1.93960000       0.87830000
H       -0.93620000      -0.38250000       0.05310000
H        0.20500000      -0.12380000      -2.14680000
H        1.77430000      -0.14470000      -1.35880000
H        2.14860000       1.05830000       1.70550000
H        2.38350000      -0.53620000       2.45910000
H        2.80160000      -0.29370000       0.74850000
H       -0.91010000      -1.57340000       1.71210000
