16
Properties=species:S:1:pos:R:3 gdb_17723=T pbc="F F F"
C       -0.10970000       1.55740000       0.00790000
C        1.44830000       1.29670000      -0.01840000
C        1.33700000       0.14380000       1.02120000
C        1.81640000      -1.03150000       0.13610000
C        0.63750000      -2.05100000       0.24240000
O       -0.55570000      -1.19870000       0.21630000
C        0.08240000       0.03920000       0.11010000
C        1.28240000       0.00920000      -0.87690000
H       -0.50620000       2.07270000       0.88770000
H       -0.55800000       1.94500000      -0.91170000
H        2.23170000       2.04720000      -0.09420000
H        1.31220000       0.23040000       2.10760000
H        2.82570000      -1.44660000       0.13650000
H        0.59440000      -2.74630000      -0.60310000
H        0.64560000      -2.61990000       1.17860000
H        1.19500000      -0.05830000      -1.96150000
