21
Properties=species:S:1:pos:R:3 gdb_108199=T pbc="F F F"
C        0.08470000       1.53770000       0.10160000
C        0.00180000       0.01810000      -0.08120000
C        0.65870000      -0.51160000      -1.34200000
C        0.76810000      -2.05520000      -1.46250000
C        1.97410000      -2.20210000      -2.43640000
C        2.29660000      -0.71620000      -2.67780000
O        1.30820000      -0.16800000      -3.54930000
C        0.16160000       0.02410000      -2.70740000
O        2.04880000      -0.11540000      -1.42540000
H        1.12270000       1.87460000       0.04700000
H       -0.48440000       2.07570000      -0.66250000
H       -0.32050000       1.82650000       1.07570000
H        0.47870000      -0.47720000       0.77290000
H       -1.04550000      -0.30980000      -0.07890000
H        0.98340000      -2.49280000      -0.48450000
H       -0.15130000      -2.50790000      -1.84180000
H        2.81780000      -2.71650000      -1.96930000
H        1.72740000      -2.71110000      -3.36990000
H        3.28970000      -0.46510000      -3.04980000
H       -0.69640000      -0.53800000      -3.09370000
H       -0.09160000       1.08910000      -2.67730000
