14
Properties=species:S:1:pos:R:3 gdb_46860=T pbc="F F F"
N       -0.17670000       1.30060000      -0.21430000
C       -0.01680000       0.10530000       0.15950000
O        1.09940000      -0.30670000       0.83030000
C        1.36010000      -1.69190000       1.03890000
C        0.12770000      -2.47210000       1.43210000
O       -0.81490000      -1.77640000       2.22170000
C       -1.16910000      -2.06440000       0.85770000
C       -1.12690000      -0.90980000      -0.09260000
O       -1.89760000      -0.80770000      -1.01230000
H        0.63950000       1.86350000       0.03800000
H        1.80470000      -2.14090000       0.13950000
H        2.10690000      -1.72480000       1.83710000
H        0.28650000      -3.52030000       1.68500000
H       -1.97690000      -2.77560000       0.70920000
