15
Properties=species:S:1:pos:R:3 gdb_46469=T pbc="F F F"
N       -0.10240000       1.28910000       0.10160000
C       -0.00850000       0.02080000       0.03670000
N        1.08510000      -0.80940000      -0.07830000
C        0.82490000      -2.24240000       0.02000000
C       -0.69400000      -2.31100000      -0.05100000
C       -1.47350000      -3.34130000      -0.75860000
O       -1.37700000      -3.33500000       0.66070000
C       -1.22120000      -0.89510000       0.06300000
O       -2.37410000      -0.57650000       0.15180000
H        0.81570000       1.73950000       0.08280000
H        2.02270000      -0.44790000      -0.01340000
H        1.31260000      -2.79080000      -0.79340000
H        1.16850000      -2.66590000       0.97300000
H       -2.44890000      -3.07100000      -1.15890000
H       -0.94210000      -4.14520000      -1.26610000
