22
Properties=species:S:1:pos:R:3 gdb_112750=T pbc="F F F"
C        0.38830000       1.78260000       0.53730000
O        0.83250000       0.51630000       0.10170000
C        0.68250000      -0.49070000       1.06480000
C       -0.71660000      -1.13720000       1.30260000
C       -0.02780000      -2.53850000       1.31370000
C       -0.71650000      -3.70420000       0.62220000
C        1.18190000      -1.86920000       0.64390000
C        1.80150000      -2.16750000      -0.66430000
N        2.54600000      -2.37300000       0.59830000
H        0.92880000       2.11420000       1.43790000
H        0.58060000       2.49140000      -0.27170000
H       -0.68850000       1.78540000       0.76190000
H        1.13470000      -0.17310000       2.02020000
H       -1.27570000      -0.83840000       2.19140000
H       -1.34270000      -1.01040000       0.41430000
H        0.23800000      -2.81840000       2.33990000
H       -0.99950000      -3.44340000      -0.40330000
H       -0.05970000      -4.58000000       0.57960000
H       -1.62640000      -3.99700000       1.15710000
H        1.54830000      -3.08170000      -1.19420000
H        2.06150000      -1.32270000      -1.29490000
H        3.20390000      -1.60860000       0.73870000
