17
Properties=species:S:1:pos:R:3 gdb_76931=T pbc="F F F"
C       -0.02630000       1.56610000      -0.14000000
C        0.02230000       0.04580000      -0.04820000
C       -1.14730000      -0.62640000      -0.54950000
C       -2.13240000      -1.17470000      -0.96830000
C        1.33310000      -0.66820000      -0.20760000
O        2.44150000       0.13250000      -0.46660000
C        0.69130000      -0.65550000       1.17700000
C        1.27530000       0.13950000       2.28090000
O        1.20440000      -0.18970000       3.44190000
H        0.93950000       2.01250000       0.09560000
H       -0.29040000       1.85580000      -1.16070000
H       -0.78590000       1.96980000       0.53470000
H       -3.00160000      -1.65900000      -1.33920000
H        1.31330000      -1.62300000      -0.73020000
H        3.22520000      -0.31340000      -0.12700000
H        0.21550000      -1.57240000       1.50560000
H        1.80610000       1.06600000       1.98270000
