18
Properties=species:S:1:pos:R:3 gdb_40326=T pbc="F F F"
C       -0.24580000       1.35080000      -0.21140000
C        1.19180000       1.07890000       0.14020000
C        0.20350000      -0.06650000       0.06530000
C       -0.22990000      -0.75640000       1.29330000
C       -1.61440000      -1.31070000       1.68970000
C       -0.91590000      -2.37730000       2.56680000
C        0.42180000      -1.85100000       2.19210000
N       -0.26740000      -1.32000000       3.42220000
C       -0.93260000      -0.26650000       2.53750000
H       -0.86360000       1.84260000       0.53220000
H       -0.48950000       1.61260000      -1.23470000
H        1.93880000       1.15870000      -0.64160000
H        1.53520000       1.37790000       1.12430000
H        0.29540000      -0.70710000      -0.80890000
H       -2.54010000      -1.28180000       1.13290000
H       -1.22790000      -3.33430000       2.96780000
H        1.41180000      -2.29100000       2.23050000
H       -1.23670000       0.71770000       2.87300000
