19
Properties=species:S:1:pos:R:3 gdb_83819=T pbc="F F F"
O       -0.04650000       1.42240000       0.12970000
C       -0.00670000       0.03480000       0.00910000
C       -1.29810000      -0.77830000      -0.02230000
C       -2.62530000      -0.02490000      -0.00730000
C       -3.24320000       0.17450000      -1.40510000
C       -2.21940000       0.51930000      -2.46150000
C       -0.94350000       0.12940000      -2.39230000
C       -0.41280000      -0.66550000      -1.25490000
O        0.41030000      -1.74760000      -1.60720000
H       -0.36070000       1.78510000      -0.70780000
H        0.83770000      -0.39510000       0.53830000
H       -1.25840000      -1.73370000       0.49090000
H       -3.33770000      -0.54610000       0.63870000
H       -2.45690000       0.96000000       0.44450000
H       -3.77050000      -0.73720000      -1.72490000
H       -4.01140000       0.95470000      -1.36240000
H       -2.56570000       1.07470000      -3.33020000
H       -0.23890000       0.35930000      -3.18830000
H       -0.14340000      -2.40320000      -2.04720000
