19
Properties=species:S:1:pos:R:3 gdb_39830=T pbc="F F F"
C       -0.14510000       1.37410000       0.12660000
C        1.27130000       0.88380000      -0.03840000
C        0.14430000      -0.11280000       0.07520000
C        0.05820000      -0.79700000      -1.27350000
C       -0.40810000      -2.19980000      -1.38700000
N       -1.23130000      -1.10140000      -1.92520000
C        1.19010000      -0.24900000      -2.12120000
C        1.16160000       1.17710000      -2.53240000
N        1.92740000       0.76860000      -1.34650000
H       -0.39660000       1.78840000       1.09760000
H       -0.67340000       1.84290000      -0.69450000
H        1.97010000       1.05120000       0.77300000
H       -0.01270000      -0.71040000       0.96680000
H        0.02390000      -2.85520000      -2.13940000
H       -0.73110000      -2.70630000      -0.48060000
H       -1.99030000      -0.89340000      -1.27990000
H        1.78670000      -0.96190000      -2.68540000
H        1.77550000       1.50670000      -3.36630000
H        0.23710000       1.73230000      -2.41820000
