15
Properties=species:S:1:pos:R:3 gdb_44099=T pbc="F F F"
O       -0.02870000       0.05700000      -0.06690000
C        0.03920000       1.23920000      -0.01730000
O       -1.02470000       2.13840000       0.09430000
C       -0.11410000       3.23950000       0.18950000
C       -0.21740000       4.67810000      -0.25510000
O        0.69570000       5.02920000       0.82690000
C        0.52230000       3.75030000       1.49930000
C        1.71980000       2.78540000       1.32910000
C        1.11050000       2.33750000      -0.04370000
H        0.17490000       4.94780000      -1.24060000
H       -1.20710000       5.12980000      -0.10860000
H        0.01730000       3.84680000       2.46290000
H        2.68050000       3.29420000       1.23800000
H        1.79410000       1.99830000       2.08270000
H        1.72830000       2.36450000      -0.94020000
