17
Properties=species:S:1:pos:R:3 gdb_123755=T pbc="F F F"
C        0.01940000       1.28030000      -0.30400000
C        1.47260000       1.51120000       0.14650000
C        1.35380000       0.08760000       0.76220000
O        0.05920000      -0.10010000       0.13250000
C        2.31870000      -0.96640000       0.34710000
C        3.54130000      -1.38520000       0.83950000
C        3.95150000      -2.40140000      -0.04960000
N        3.05780000      -2.61260000      -1.01320000
N        2.08590000      -1.71900000      -0.75620000
H       -0.73230000       1.85360000       0.25220000
H       -0.19050000       1.36240000      -1.37550000
H        2.19390000       1.56910000      -0.66930000
H        1.64790000       2.32500000       0.85060000
H        1.26300000       0.10670000       1.85610000
H        4.05770000      -1.00960000       1.70820000
H        4.85690000      -2.99000000      -0.02200000
H        1.23580000      -1.71110000      -1.29570000
