22
Properties=species:S:1:pos:R:3 gdb_96198=T pbc="F F F"
C       -0.07040000       1.53140000       0.03900000
C       -0.01840000       0.01190000      -0.05990000
C        0.80420000      -0.47220000      -1.25250000
C        0.77860000      -1.98940000      -1.43910000
C        1.39990000      -2.76280000      -0.26940000
N        0.64090000      -2.79840000       0.97380000
C        0.30690000      -1.74720000       1.59000000
C       -0.33240000      -1.80500000       2.94910000
O        0.51130000      -0.44120000       1.20250000
H        0.93910000       1.94130000       0.14350000
H       -0.52620000       1.95830000      -0.85910000
H       -0.65600000       1.83910000       0.90870000
H       -1.04080000      -0.38430000      -0.15340000
H        0.41540000       0.01850000      -2.15330000
H        1.83880000      -0.12740000      -1.12370000
H       -0.25350000      -2.33280000      -1.58790000
H        1.32910000      -2.24960000      -2.35110000
H        1.55150000      -3.80250000      -0.57730000
H        2.39950000      -2.34900000      -0.06450000
H       -0.40540000      -2.83720000       3.28990000
H        0.26200000      -1.22110000       3.66010000
H       -1.32940000      -1.35110000       2.92320000
