20
Properties=species:S:1:pos:R:3 gdb_96256=T pbc="F F F"
C        0.24190000       1.59340000      -0.00490000
C       -0.01710000       0.08960000       0.05300000
C        0.76130000      -0.64710000      -1.06200000
O        0.01530000      -1.66480000      -1.73240000
C       -0.38780000      -2.81380000      -1.13220000
N       -0.22700000      -3.33410000       0.00260000
C        0.49580000      -2.81340000       1.14890000
C       -0.12330000      -1.56530000       1.81070000
O        0.36710000      -0.32410000       1.35050000
H        1.31220000       1.80100000       0.09790000
H       -0.10390000       2.01080000      -0.95480000
H       -0.28070000       2.09380000       0.81320000
H       -1.09010000      -0.10740000      -0.10490000
H        1.00490000       0.05260000      -1.86470000
H        1.70030000      -1.03690000      -0.65940000
H       -0.98090000      -3.35620000      -1.87050000
H        0.48470000      -3.61040000       1.90120000
H        1.55290000      -2.61010000       0.93750000
H       -1.21910000      -1.61510000       1.71260000
H        0.12270000      -1.58030000       2.87700000
