16
Properties=species:S:1:pos:R:3 gdb_127439=T pbc="F F F"
C       -0.17990000       1.38080000      -0.02430000
N       -0.06660000      -0.06120000       0.02270000
N       -0.14630000      -0.79960000      -1.10330000
C       -0.00030000      -2.04590000      -0.66050000
C       -0.02150000      -3.22640000      -1.57180000
N        0.16800000      -2.14620000       0.68450000
C        0.12230000      -0.88170000       1.09100000
C        0.24600000      -0.41180000       2.41920000
C        0.34910000       0.00670000       3.54270000
H       -0.08720000       1.76740000       0.99090000
H        0.61250000       1.79740000      -0.65090000
H       -1.14960000       1.66600000      -0.43990000
H        0.91810000      -3.78340000      -1.50360000
H       -0.82680000      -3.91350000      -1.29470000
H       -0.16910000      -2.90300000      -2.60340000
H        0.44180000       0.36090000       4.53990000
