19
Properties=species:S:1:pos:R:3 gdb_61874=T pbc="F F F"
C        0.34710000       1.44400000      -0.46670000
N       -0.16430000       0.18760000       0.08280000
C        0.48130000      -0.14220000       1.34430000
C        1.91840000      -0.59560000       1.12680000
O        2.80590000      -0.45430000       1.92420000
C       -1.62360000       0.17900000       0.14180000
C       -2.30530000      -0.06730000      -1.21360000
N       -1.53080000      -0.73090000      -2.11060000
O       -3.45300000       0.27460000      -1.41610000
H        1.43410000       1.38970000      -0.58190000
H       -0.08890000       1.62150000      -1.45280000
H        0.11430000       2.30890000       0.17850000
H        0.47350000       0.67320000       2.08700000
H       -0.04000000      -0.99730000       1.79600000
H        2.07430000      -1.10980000       0.14980000
H       -1.94590000      -0.63680000       0.79840000
H       -2.05230000       1.10660000       0.55130000
H       -0.58930000      -0.98300000      -1.85900000
H       -1.91410000      -0.97470000      -3.00800000
