15
Properties=species:S:1:pos:R:3 gdb_97169=T pbc="F F F"
C       -0.02320000       1.43410000       0.07720000
N       -0.01620000      -0.01730000       0.10410000
C       -1.09420000      -0.65890000       0.03100000
O       -2.36300000      -0.12980000      -0.07830000
C       -3.32910000      -1.17780000      -0.13520000
C       -2.53590000      -2.44490000      -0.04990000
C       -1.23720000      -2.13260000       0.04650000
C       -0.13730000      -3.02490000       0.14920000
N        0.74880000      -3.76370000       0.23220000
H        0.59330000       1.77440000      -0.76220000
H       -1.01930000       1.88170000      -0.00920000
H        0.45540000       1.80620000       0.98990000
H       -4.03770000      -1.06800000       0.69710000
H       -3.89870000      -1.10010000      -1.07140000
H       -2.97110000      -3.43410000      -0.06620000
