18
Properties=species:S:1:pos:R:3 gdb_84257=T pbc="F F F"
C       -0.21510000       1.54830000      -0.08900000
C        0.00020000       0.03090000      -0.02450000
C        0.81760000      -0.56680000      -1.16720000
C        1.80860000      -1.24610000      -0.58940000
C        3.12090000      -2.02020000      -0.57390000
C        3.08460000      -1.83840000       0.99140000
N        1.76700000      -1.19920000       0.80660000
C        0.77950000      -0.36150000       1.27770000
O        0.55830000      -0.00610000       2.41100000
H        0.73760000       2.07370000      -0.20650000
H       -0.85770000       1.81630000      -0.93290000
H       -0.68500000       1.89330000       0.83600000
H       -0.98160000      -0.45820000       0.05060000
H        0.61690000      -0.42090000      -2.21730000
H        3.04960000      -3.05810000      -0.90530000
H        3.95710000      -1.53850000      -1.08350000
H        3.05440000      -2.75700000       1.58170000
H        3.84430000      -1.16440000       1.39630000
