20
Properties=species:S:1:pos:R:3 gdb_30218=T pbc="F F F"
C       -0.16910000       1.58860000       0.03780000
C       -0.01430000       0.07160000       0.05810000
C        0.63860000      -0.58890000      -1.22590000
N        1.71350000      -1.05380000      -0.33820000
C        1.18370000      -0.51720000       0.79630000
C        1.98300000      -0.85590000       1.86290000
C        3.03850000      -1.64060000       1.29190000
C        2.85630000      -1.76550000      -0.08060000
C        3.66120000      -2.46970000      -1.12090000
H        0.76950000       2.07490000      -0.24630000
H       -0.94690000       1.89680000      -0.66950000
H       -0.45140000       1.96020000       1.02800000
H       -0.96900000      -0.40020000       0.31580000
H        0.06040000      -1.39420000      -1.68950000
H        0.96790000       0.11780000      -1.99470000
H        1.86170000      -0.60020000       2.90370000
H        3.86740000      -2.07120000       1.83600000
H        3.08270000      -3.24340000      -1.64160000
H        4.04470000      -1.78320000      -1.88630000
H        4.52080000      -2.95870000      -0.65610000
