19
Properties=species:S:1:pos:R:3 gdb_30306=T pbc="F F F"
C       -0.01750000       1.59350000       0.02360000
C        0.01770000       0.06210000       0.07430000
C        0.70770000      -0.60040000      -1.17110000
C        1.54080000      -1.83510000      -0.67970000
C        1.68360000      -1.54580000       0.78740000
C        0.86180000      -0.53480000       1.15050000
O        0.91820000      -0.28810000       2.48070000
C        1.82680000      -1.18740000       2.97710000
C        2.32500000      -1.98670000       1.99060000
H        0.99420000       2.00310000      -0.06590000
H       -0.60350000       1.94060000      -0.83370000
H       -0.46990000       2.00680000       0.93030000
H       -1.01780000      -0.30020000       0.16200000
H       -0.01810000      -0.86990000      -1.94270000
H        1.38920000       0.13400000      -1.61330000
H        1.00300000      -2.77610000      -0.85480000
H        2.49170000      -1.91610000      -1.21710000
H        2.01160000      -1.11950000       4.03660000
H        3.05410000      -2.77130000       2.12360000
