18
Properties=species:S:1:pos:R:3 gdb_74024=T pbc="F F F"
C       -0.05540000       1.42800000      -0.03160000
C       -0.02490000      -0.04940000       0.17250000
C       -1.00070000      -0.93870000       0.38500000
C       -2.37850000      -1.30990000      -0.12010000
C       -1.63260000      -2.52240000      -0.80410000
C       -0.47090000      -2.32030000       0.23860000
O        0.90510000      -2.18920000      -0.08000000
C        1.22200000      -0.83650000      -0.02100000
N        2.38250000      -0.36330000      -0.19490000
H        0.53050000       1.93340000       0.74410000
H        0.40330000       1.69830000      -0.98810000
H       -1.07720000       1.81430000       0.00060000
H       -3.06850000      -1.64580000       0.65920000
H       -2.88560000      -0.59130000      -0.76550000
H       -2.13630000      -3.49150000      -0.79870000
H       -1.30500000      -2.26600000      -1.81270000
H       -0.57770000      -3.00060000       1.09030000
H        3.05370000      -1.10740000      -0.38860000
