15
Properties=species:S:1:pos:R:3 gdb_60879=T pbc="F F F"
O        0.44080000       1.60260000       0.00380000
C        0.09640000       0.25700000       0.11560000
C        0.44500000      -0.49400000      -1.16190000
O        0.92450000       0.07980000      -2.10840000
C        0.78790000      -0.40710000       1.31370000
C        0.06940000      -0.47680000       2.60010000
O        0.14380000      -1.61860000       1.74810000
C        2.22910000      -0.41760000       1.27820000
C        3.42830000      -0.42250000       1.20540000
H        0.85150000       1.69420000      -0.87180000
H       -0.98810000       0.13080000       0.27520000
H        0.23250000      -1.57950000      -1.16930000
H        0.64380000      -0.54540000       3.52070000
H       -0.91000000      -0.00780000       2.68010000
H        4.48930000      -0.42720000       1.15000000
