14
Properties=species:S:1:pos:R:3 gdb_25105=T pbc="F F F"
N        0.10180000       1.03970000      -0.72360000
C       -0.03910000       0.09290000       0.09450000
O        0.92400000      -0.13320000       1.08830000
C        1.48210000      -1.35340000       1.27880000
C        1.05670000      -2.56460000       0.89480000
C       -0.22660000      -2.92610000       0.30980000
N       -0.44140000      -4.14150000      -0.04550000
C       -1.30560000      -1.89910000       0.23170000
N       -1.22000000      -0.63610000       0.13970000
H        1.02490000       1.46070000      -0.62170000
H        2.41690000      -1.24100000       1.81780000
H        1.71340000      -3.40080000       1.10540000
H       -1.40470000      -4.25940000      -0.37120000
H       -2.31740000      -2.31710000       0.22740000
