17
Properties=species:S:1:pos:R:3 gdb_19128=T pbc="F F F"
N        0.07810000      -1.14190000       0.03280000
C        0.04500000       0.01500000       0.02860000
C       -0.01400000       1.45540000       0.01150000
C        0.49030000       2.17020000       1.25990000
C        1.32200000       2.18950000       0.01300000
C       -1.16890000       2.05490000      -0.74980000
C       -1.69340000       1.43210000      -2.01860000
C       -2.53190000       1.41070000      -0.76400000
H       -0.04730000       3.06880000       1.54140000
H        0.82330000       1.56090000       2.09130000
H        2.22620000       1.59340000      -0.01190000
H        1.36240000       3.10140000      -0.57210000
H       -1.15230000       3.14090000      -0.72020000
H       -1.98160000       2.09250000      -2.82860000
H       -1.25430000       0.49340000      -2.33870000
H       -2.64480000       0.45790000      -0.25810000
H       -3.40070000       2.05640000      -0.70500000
