15
Properties=species:S:1:pos:R:3 gdb_9564=T pbc="F F F"
C       -0.05190000       1.55040000      -0.09330000
C       -0.01850000       0.03890000       0.00780000
N        1.30550000      -0.58270000      -0.20250000
C        0.70940000      -0.64510000       1.14860000
C        1.34450000       0.09390000       2.20310000
C        1.85000000       0.70040000       3.10980000
C       -1.17400000      -0.65170000      -0.50840000
C       -2.13250000      -1.21980000      -0.96210000
H        0.85760000       1.97270000       0.33650000
H       -0.12130000       1.85420000      -1.14170000
H       -0.91810000       1.95130000       0.44070000
H        1.19490000      -1.48620000      -0.65750000
H        0.28200000      -1.59620000       1.45640000
H        2.30470000       1.23670000       3.90570000
H       -2.98130000      -1.72080000      -1.35760000
