19
Properties=species:S:1:pos:R:3 gdb_37424=T pbc="F F F"
C       -0.04370000       1.53670000       0.01660000
C        1.50870000       1.58710000       0.00900000
C        2.20130000       1.44280000       1.39170000
C        2.09500000      -0.11900000       1.30580000
C        0.98090000      -0.76350000       2.12280000
O       -0.07730000       0.13020000       2.49870000
C       -0.27600000      -0.71090000       1.35290000
C       -0.01410000      -0.03070000       0.01390000
C        1.54110000       0.03180000      -0.15020000
H       -0.54750000       2.00250000       0.86570000
H       -0.46620000       1.93150000      -0.91070000
H        1.97020000       2.27820000      -0.69730000
H        3.24150000       1.77640000       1.36040000
H        1.70210000       1.90830000       2.24360000
H        3.04020000      -0.65190000       1.42310000
H        1.20170000      -1.53980000       2.85190000
H       -1.07180000      -1.44470000       1.45930000
H       -0.57860000      -0.50050000      -0.79350000
H        2.02120000      -0.50310000      -0.97050000
