21
Properties=species:S:1:pos:R:3 gdb_113099=T pbc="F F F"
C        0.41110000       1.15200000      -0.65110000
C       -0.00970000      -0.22760000      -0.13610000
C       -1.42410000      -0.24840000       0.44580000
C       -2.57620000      -0.20100000      -0.60810000
C       -2.73620000      -1.72720000      -0.44630000
C       -1.93030000      -1.66210000       0.86840000
O       -4.07800000      -2.19400000      -0.32710000
C       -4.48040000      -3.21860000      -1.10040000
O       -5.58450000      -3.67130000      -1.05550000
H        1.42500000       1.13080000      -1.06180000
H       -0.25930000       1.50720000      -1.44110000
H        0.39250000       1.89390000       0.15480000
H        0.06860000      -0.96360000      -0.94830000
H        0.69350000      -0.55870000       0.63920000
H       -1.50160000       0.51060000       1.22950000
H       -3.46240000       0.31440000      -0.23040000
H       -2.34380000       0.17660000      -1.60720000
H       -2.22290000      -2.29380000      -1.23120000
H       -1.18120000      -2.44000000       1.03860000
H       -2.60680000      -1.62190000       1.72550000
H       -3.68070000      -3.58690000      -1.77360000
