14
Properties=species:S:1:pos:R:3 gdb_131210=T pbc="F F F"
O        0.02820000       1.36230000       0.01040000
C       -0.02120000       0.01460000       0.00330000
C       -1.18030000      -0.67840000       0.00390000
C       -1.18160000      -2.13080000      -0.00390000
N       -2.27480000      -2.80740000      -0.00450000
N        0.10590000      -2.68220000      -0.01090000
N        1.28700000      -2.01470000      -0.01240000
C        1.21910000      -0.73330000      -0.00540000
O        2.35030000       0.01970000      -0.00560000
H        0.95660000       1.62990000       0.00900000
H       -2.14050000      -0.18070000       0.01000000
H       -2.09520000      -3.81250000      -0.01080000
H        0.20840000      -3.68450000      -0.01770000
H        3.10700000      -0.58090000      -0.01050000
