21
Properties=species:S:1:pos:R:3 gdb_87528=T pbc="F F F"
O        0.13270000       1.35170000      -0.08380000
C        0.02210000      -0.04290000      -0.00370000
C       -0.41720000      -0.74660000       1.27080000
C       -1.28660000      -0.74550000       0.03990000
C       -2.68270000      -0.13590000      -0.20340000
C       -2.56370000      -0.75380000      -1.62840000
C       -1.80720000      -1.88030000      -0.86150000
C       -2.92630000      -2.48180000       0.01650000
C       -3.59340000      -1.15410000       0.51610000
H       -0.66160000       1.74090000       0.29560000
H        0.83440000      -0.49410000      -0.56650000
H        0.09440000      -1.65830000       1.56660000
H       -0.71940000      -0.11670000       2.10410000
H       -2.89570000       0.92460000      -0.05210000
H       -3.48980000      -1.02080000      -2.14720000
H       -1.90740000      -0.17580000      -2.28110000
H       -1.13020000      -2.57010000      -1.36680000
H       -3.61240000      -3.11040000      -0.55860000
H       -2.52740000      -3.08140000       0.83930000
H       -3.55190000      -1.05020000       1.60380000
H       -4.63860000      -1.06220000       0.20670000
