20
Properties=species:S:1:pos:R:3 gdb_75904=T pbc="F F F"
C        0.07450000       1.62360000      -0.04790000
C       -0.00830000       0.09070000       0.05080000
C        0.72630000      -0.55980000      -1.11070000
N        0.30880000      -0.60980000      -2.30080000
O        1.92330000      -1.06970000      -0.68690000
C        2.11380000      -0.80990000       0.71360000
C        0.72480000      -0.50610000       1.24840000
C        0.48900000      -0.10930000       2.67480000
C        0.04590000      -1.46980000       2.18760000
H        1.11260000       1.97140000      -0.02840000
H       -0.37750000       1.96040000      -0.98400000
H       -0.45370000       2.09440000       0.78660000
H       -1.05790000      -0.21150000       0.02030000
H        0.99220000      -1.07280000      -2.90280000
H        2.57610000      -1.69180000       1.16550000
H        2.80040000       0.04020000       0.82420000
H        1.34420000      -0.05730000       3.34170000
H       -0.27350000       0.63490000       2.87940000
H       -1.01730000      -1.64330000       2.05760000
H        0.60260000      -2.33930000       2.52250000
