21
Properties=species:S:1:pos:R:3 gdb_40837=T pbc="F F F"
C        0.31090000       1.51310000       0.01430000
O        1.16820000       0.40400000      -0.26550000
C       -0.21070000       0.14100000       0.00810000
C       -0.51880000      -0.61830000       1.27700000
C       -1.99800000      -0.48160000       1.67900000
C       -2.30060000      -1.35220000       2.90170000
O       -1.96150000      -2.70950000       2.68310000
C       -0.58190000      -2.87560000       2.39980000
C       -0.16230000      -2.10970000       1.14340000
H        0.49140000       2.01300000       0.96550000
H        0.11340000       2.17650000      -0.82670000
H       -0.77800000      -0.17880000      -0.86970000
H        0.10230000      -0.18820000       2.07560000
H       -2.24820000       0.56370000       1.89600000
H       -2.63810000      -0.80490000       0.84800000
H       -1.75310000      -0.96240000       3.77850000
H       -3.36790000      -1.33770000       3.14100000
H        0.02210000      -2.53940000       3.26130000
H       -0.42240000      -3.95100000       2.27940000
H       -0.68600000      -2.53580000       0.27770000
H        0.91240000      -2.22800000       0.96840000
