18
Properties=species:S:1:pos:R:3 gdb_23139=T pbc="F F F"
O       -0.44620000       1.81580000       1.14700000
N       -0.12130000       0.45240000       1.21300000
C       -0.89230000      -0.27280000       0.49040000
C       -0.57720000      -1.75790000       0.57560000
C       -0.19040000      -2.38290000      -0.68790000
C        0.13760000      -2.91420000      -1.71510000
C       -2.03900000       0.25010000      -0.28850000
C       -2.13040000       0.10770000      -1.80290000
C       -3.08060000      -0.64650000      -0.92400000
H        0.18810000       2.20080000       1.76040000
H        0.23300000      -1.87100000       1.30250000
H       -1.45000000      -2.28490000       0.98380000
H        0.43080000      -3.38320000      -2.62160000
H       -2.39480000       1.19820000       0.09460000
H       -2.49040000       0.97190000      -2.34960000
H       -1.35300000      -0.45810000      -2.30020000
H       -2.94720000      -1.72020000      -0.85820000
H       -4.11310000      -0.32100000      -0.86370000
