17
Properties=species:S:1:pos:R:3 gdb_118635=T pbc="F F F"
C        0.25280000       0.66770000      -0.59640000
O       -0.44180000       0.23790000       0.56780000
C       -1.56270000      -0.57640000       0.33390000
C       -1.20320000      -2.05160000       0.11660000
O       -0.69780000      -2.21780000      -1.20130000
C       -0.52770000      -3.48460000      -1.65670000
O       -0.03900000      -3.71310000      -2.71880000
C       -0.19060000      -2.51160000       1.16450000
O        0.79290000      -3.14790000       0.90220000
H        1.00580000       1.38300000      -0.25910000
H        0.74230000      -0.16170000      -1.11640000
H       -0.42960000       1.17000000      -1.29710000
H       -2.18750000      -0.50750000       1.23180000
H       -2.15530000      -0.22720000      -0.52400000
H       -2.11750000      -2.65360000       0.25660000
H       -0.91950000      -4.24930000      -0.96250000
H       -0.45520000      -2.23000000       2.20570000
