15
Properties=species:S:1:pos:R:3 gdb_129642=T pbc="F F F"
N        0.03170000       1.42110000       0.07460000
C       -0.04310000       0.03130000       0.02560000
C       -1.20190000      -0.67590000       0.00350000
N       -2.45890000      -0.05480000      -0.04770000
C       -1.11590000      -2.11940000      -0.06700000
N       -2.18260000      -2.82650000      -0.18650000
N        0.17380000      -2.71330000       0.00250000
N        1.23020000      -2.02350000       0.07550000
N        1.13930000      -0.67560000       0.05280000
H        0.82190000       1.80540000      -0.43050000
H       -0.82950000       1.83040000      -0.27330000
H       -2.65750000       0.51730000       0.76630000
H       -3.16380000      -0.78420000      -0.12860000
H       -1.93370000      -3.81500000      -0.23180000
H        2.02330000      -0.21690000       0.20760000
