20
Properties=species:S:1:pos:R:3 gdb_82224=T pbc="F F F"
C       -0.06680000       1.56650000      -0.02400000
C        0.05150000       0.04040000       0.01970000
C        0.72240000      -0.55310000      -1.22170000
N        2.09220000      -0.10500000      -1.54810000
C        1.87790000      -1.45880000      -0.99550000
C        2.20430000      -1.65320000       0.48160000
C        2.31020000      -0.30950000       1.22460000
C        0.77590000      -0.47330000       1.28080000
O        0.93840000      -1.91810000       1.16680000
H        0.91750000       2.03110000      -0.12810000
H       -0.67700000       1.88750000      -0.87450000
H       -0.53740000       1.95240000       0.88700000
H       -0.95590000      -0.39410000       0.06150000
H        0.06210000      -0.76280000      -2.05960000
H        2.24150000      -0.16130000      -2.55230000
H        2.01720000      -2.31430000      -1.65030000
H        2.94300000      -2.43620000       0.66780000
H        2.75920000      -0.43780000       2.21050000
H        2.74080000       0.53870000       0.69690000
H        0.24570000      -0.18960000       2.19500000
