19
Properties=species:S:1:pos:R:3 gdb_97884=T pbc="F F F"
C        0.09250000       0.96510000      -0.76720000
C       -0.26210000       0.51870000       0.66320000
C       -1.50770000      -0.23820000       0.72800000
C       -2.53660000      -0.86200000       0.74680000
C       -3.77010000      -1.62840000       0.76840000
C       -3.89890000      -2.66160000      -0.36760000
O       -3.23600000      -2.63570000      -1.36740000
C       -4.96620000      -3.72230000      -0.10680000
O       -5.17000000      -4.48440000      -1.26520000
H        1.03540000       1.52010000      -0.77040000
H        0.19530000       0.10030000      -1.42760000
H       -0.68960000       1.60940000      -1.17740000
H        0.55520000      -0.09060000       1.07020000
H       -0.33470000       1.39840000       1.31580000
H       -3.90160000      -2.14170000       1.73110000
H       -4.64230000      -0.96270000       0.67830000
H       -4.61100000      -4.32860000       0.74610000
H       -5.88230000      -3.21090000       0.23820000
H       -5.81220000      -5.17070000      -1.06270000
