21
Properties=species:S:1:pos:R:3 gdb_62849=T pbc="F F F"
C       -0.12000000       1.51400000       0.00610000
C       -0.03540000      -0.01690000       0.01430000
C       -1.42830000      -0.56210000       0.34680000
C        0.76490000      -0.62390000      -1.20210000
C        2.06930000      -0.26030000      -0.43400000
C        1.19710000      -0.60070000       0.82060000
C        1.00820000      -2.09320000       0.57870000
O        1.07200000      -3.00690000       1.35610000
C        0.70890000      -2.14100000      -0.94150000
H        0.81810000       2.01400000      -0.23900000
H       -0.86500000       1.83820000      -0.72990000
H       -0.44720000       1.88340000       0.98400000
H       -2.14540000      -0.28540000      -0.43460000
H       -1.46230000      -1.64710000       0.46380000
H       -1.78730000      -0.12700000       1.28600000
H        0.58330000      -0.27930000      -2.22100000
H        2.94710000      -0.88620000      -0.61700000
H        2.35620000       0.78740000      -0.48670000
H        1.44640000      -0.29140000       1.83440000
H       -0.25080000      -2.61950000      -1.15010000
H        1.48580000      -2.69660000      -1.47630000
