21
Properties=species:S:1:pos:R:3 gdb_66633=T pbc="F F F"
C       -0.00880000       1.52170000      -0.04990000
C       -0.01370000       0.02340000      -0.00000000
C        0.51400000      -1.00930000      -0.96320000
C        1.14880000      -0.86860000       0.41710000
C        0.60100000      -2.01170000       1.32550000
C        0.09540000      -3.04360000       0.28730000
C       -0.60630000      -2.00330000      -0.60240000
C       -1.17120000      -0.91220000       0.42350000
C       -0.74580000      -1.42170000       1.81010000
H        0.95540000       1.89980000      -0.40750000
H       -0.78420000       1.90440000      -0.72400000
H       -0.18610000       1.95740000       0.94090000
H        1.04400000      -0.89410000      -1.90180000
H        2.14380000      -0.45640000       0.52620000
H        1.28670000      -2.37560000       2.09040000
H        0.90360000      -3.55560000      -0.24480000
H       -0.57400000      -3.79130000       0.72640000
H       -1.27300000      -2.35040000      -1.38960000
H       -2.19400000      -0.56540000       0.28150000
H       -1.41010000      -2.17850000       2.24100000
H       -0.62750000      -0.60300000       2.52760000
