16
Properties=species:S:1:pos:R:3 gdb_40113=T pbc="F F F"
C        0.03220000       1.57190000       0.13440000
O        1.22400000       0.77240000       0.11140000
C       -0.02040000       0.11090000       0.01840000
C       -0.48150000      -0.83030000       1.17710000
N       -1.69300000      -1.52850000       0.65960000
C       -1.54950000      -1.43690000      -0.59110000
O       -2.39200000      -1.45750000      -1.66710000
C       -1.51930000      -0.43520000      -2.30240000
C       -0.42760000      -0.68330000      -1.21870000
H       -0.19640000       2.04380000       1.08870000
H       -0.12590000       2.19500000      -0.74480000
H        0.31980000      -1.53450000       1.43650000
H       -0.74100000      -0.27530000       2.08250000
H       -1.26450000      -0.72350000      -3.32260000
H       -2.01570000       0.53730000      -2.27140000
H        0.39990000      -1.28850000      -1.59770000
