16
Properties=species:S:1:pos:R:3 gdb_64684=T pbc="F F F"
C       -0.14780000       1.68160000       0.24880000
C       -0.12460000       0.17700000       0.13520000
C       -1.36830000      -0.48570000      -0.45980000
C       -1.68650000       0.00070000      -1.79740000
C       -1.94100000       0.41040000      -2.89760000
O        1.11340000      -0.40090000      -0.28670000
C        0.69400000      -0.64970000       1.05690000
C        1.48390000      -0.05450000       2.11320000
N        2.09850000       0.40490000       2.97770000
H        0.77800000       2.05430000       0.68980000
H       -0.27130000       2.12170000      -0.74420000
H       -0.98870000       2.00500000       0.87070000
H       -1.21090000      -1.56960000      -0.48870000
H       -2.21700000      -0.30350000       0.21240000
H       -2.16780000       0.76300000      -3.87350000
H        0.38700000      -1.67410000       1.26330000
