21
Properties=species:S:1:pos:R:3 gdb_101375=T pbc="F F F"
C       -1.07020000       1.26010000       0.28960000
O       -0.80950000      -0.12280000       0.33000000
C        0.51690000      -0.46920000       0.71670000
C        0.73350000      -0.32020000       2.22530000
C        0.72500000      -1.90180000       0.24720000
C        0.71460000      -2.18170000      -1.29990000
C        2.13990000      -2.73140000      -1.16090000
O        2.95060000      -1.67930000      -0.62060000
C        2.16030000      -2.46050000       0.28540000
H       -0.35610000       1.79020000      -0.36030000
H       -2.07660000       1.38620000      -0.11850000
H       -1.04000000       1.72870000       1.28440000
H        1.23100000       0.17540000       0.18060000
H        1.75260000      -0.61280000       2.49750000
H        0.59270000       0.71380000       2.55250000
H        0.02910000      -0.95200000       2.77650000
H        0.02430000      -2.56430000       0.76510000
H       -0.02220000      -2.93590000      -1.58380000
H        0.61370000      -1.31030000      -1.95030000
H        2.64750000      -3.49270000      -1.74160000
H        2.68460000      -2.95640000       1.09460000
