15
Properties=species:S:1:pos:R:3 gdb_15018=T pbc="F F F"
C        0.05800000      -1.19300000      -0.18230000
C        0.04970000       0.00280000      -0.07650000
C        0.00230000       1.46580000       0.04290000
C        1.35320000       2.03230000       0.11750000
C        2.45560000       2.50860000       0.15710000
C       -0.83310000       2.07670000      -1.09970000
C       -0.68030000       3.49740000      -1.48550000
N       -0.23500000       2.41690000      -2.38840000
H        0.07360000      -2.25080000      -0.27610000
H       -0.51950000       1.70880000       0.98100000
H        3.43480000       2.91710000       0.21070000
H       -1.81150000       1.60860000      -1.17410000
H       -1.54370000       4.05930000      -1.82930000
H        0.07790000       4.08150000      -0.97210000
H        0.77820000       2.32880000      -2.32640000
