13
Properties=species:S:1:pos:R:3 gdb_131100=T pbc="F F F"
O       -0.03110000       1.44450000       0.01770000
C        0.05490000       0.02290000       0.00840000
C        0.68060000      -0.48700000      -1.21320000
C        1.21760000      -0.86180000      -2.22000000
C        0.76860000      -0.45620000       1.24920000
C        1.19810000       0.25110000       2.32530000
O        1.75000000      -0.58670000       3.19900000
N        1.64480000      -1.89190000       2.62040000
N        1.07680000      -1.77310000       1.50600000
H        0.77810000       1.78480000      -0.38050000
H       -0.98410000      -0.33040000       0.04480000
H        1.68390000      -1.20890000      -3.10940000
H        1.16520000       1.29640000       2.57920000
