13
Properties=species:S:1:pos:R:3 gdb_6427=T pbc="F F F"
C       -0.29410000       1.65470000      -0.02400000
C        0.00200000       0.16410000      -0.07160000
C        0.83460000      -0.36170000      -1.27200000
C        1.89080000      -0.64480000      -0.20640000
O        2.99250000      -1.07470000      -0.14670000
O        1.10830000      -0.18970000       0.83520000
C       -1.18230000      -0.64020000       0.24220000
N       -2.13180000      -1.25910000       0.46500000
H        0.61430000       2.21580000      -0.25730000
H       -1.06990000       1.91000000      -0.75100000
H       -0.64070000       1.94120000       0.97150000
H        0.44950000      -1.25080000      -1.77170000
H        1.11500000       0.39200000      -2.00900000
