22
Properties=species:S:1:pos:R:3 gdb_113760=T pbc="F F F"
C        0.36180000       1.39670000      -0.80840000
C        0.42900000       0.10360000       0.01280000
C       -0.92940000      -0.51810000       0.28400000
C       -1.08480000      -1.62230000       1.27130000
N       -1.72580000      -0.32850000       1.50690000
C       -1.24030000       0.46520000       2.62920000
C       -1.71300000       1.92140000       2.50140000
C       -1.85390000      -0.11840000       3.89780000
O       -1.29950000      -0.15970000       4.96450000
H        1.36540000       1.77320000      -1.02750000
H       -0.14580000       1.22630000      -1.76410000
H       -0.18330000       2.18700000      -0.28390000
H        1.02260000      -0.63590000      -0.54030000
H        0.96840000       0.27520000       0.95010000
H       -1.56350000      -0.55880000      -0.60220000
H       -1.74970000      -2.46080000       1.08110000
H       -0.20720000      -1.86730000       1.87000000
H       -0.14860000       0.43960000       2.76510000
H       -1.37170000       2.50920000       3.35780000
H       -1.31720000       2.37430000       1.58920000
H       -2.80530000       1.96500000       2.45150000
H       -2.89470000      -0.48830000       3.75700000
