19
Properties=species:S:1:pos:R:3 gdb_42659=T pbc="F F F"
O       -0.06870000       0.06870000      -0.17540000
C       -0.06260000       1.26720000      -0.03300000
C       -1.24110000       2.16660000       0.12310000
C       -0.72280000       3.41470000       0.84550000
C        0.76460000       3.20260000       1.12790000
C        1.17220000       2.17970000       0.04850000
C        1.29800000       2.88520000      -1.32270000
C        0.00260000       3.67660000      -1.66090000
C       -1.07920000       3.50760000      -0.60180000
H       -2.22570000       1.74530000       0.27900000
H       -1.34290000       3.91000000       1.58380000
H        1.34280000       4.13180000       1.06790000
H        0.90430000       2.78700000       2.13170000
H        2.07190000       1.60970000       0.28240000
H        2.16360000       3.55510000      -1.29640000
H        1.50190000       2.13840000      -2.09580000
H        0.22560000       4.74470000      -1.76340000
H       -0.39500000       3.35630000      -2.62970000
H       -2.02250000       3.99680000      -0.82700000
