23
Properties=species:S:1:pos:R:3 gdb_2720=T pbc="F F F"
C       -0.05140000       1.59360000      -0.04320000
C       -0.00840000       0.06350000      -0.01410000
C        0.72360000      -0.49660000       1.21060000
C        0.77220000      -2.02770000       1.24880000
C        1.50410000      -2.58640000       2.47380000
C        1.55340000      -4.11780000       2.51330000
C        2.28650000      -4.66600000       3.74060000
H        0.95910000       2.01750000      -0.05790000
H       -0.58000000       1.96410000      -0.92730000
H       -0.56190000       1.99190000       0.84080000
H       -1.03240000      -0.33290000      -0.03540000
H        0.47750000      -0.30760000      -0.92630000
H        1.74830000      -0.09950000       1.23270000
H        0.23770000      -0.12520000       2.12390000
H       -0.25270000      -2.42400000       1.22640000
H        1.25820000      -2.39840000       0.33540000
H        2.52920000      -2.19040000       2.49680000
H        1.01850000      -2.21610000       3.38770000
H        0.52900000      -4.51290000       2.49080000
H        2.03910000      -4.48720000       1.60020000
H        2.30570000      -5.76040000       3.74160000
H        3.32420000      -4.31500000       3.77090000
H        1.80240000      -4.34080000       4.66840000
