21
Properties=species:S:1:pos:R:3 gdb_117893=T pbc="F F F"
C       -0.18680000       1.41890000       0.30690000
O       -0.09080000       0.03450000       0.07370000
C       -1.34300000      -0.61360000       0.08480000
C       -1.10830000      -2.11660000      -0.13940000
C       -0.25020000      -2.72990000       0.98430000
C       -2.38830000      -2.80670000      -0.28360000
C       -3.45140000      -3.36470000      -0.37540000
C       -4.72910000      -4.05020000      -0.51920000
O       -5.37400000      -4.13640000       0.74710000
H        0.82620000       1.82750000       0.27600000
H       -0.79650000       1.92140000      -0.46080000
H       -0.62930000       1.63770000       1.29160000
H       -1.85820000      -0.45630000       1.04720000
H       -1.99550000      -0.21340000      -0.70750000
H       -0.55480000      -2.20890000      -1.08410000
H       -0.03130000      -3.77980000       0.77450000
H        0.68820000      -2.17890000       1.07340000
H       -0.77990000      -2.67850000       1.94060000
H       -5.35280000      -3.50300000      -1.24520000
H       -4.55380000      -5.05210000      -0.94450000
H       -6.20780000      -4.59830000       0.61160000
