16
Properties=species:S:1:pos:R:3 gdb_125913=T pbc="F F F"
C        0.20520000       1.52020000       0.07370000
C        0.03560000       0.01770000      -0.02340000
C        0.74880000      -0.64720000      -1.26600000
C        1.42200000      -1.77300000      -0.56080000
C        1.29860000      -1.66080000       0.77610000
O        0.57930000      -0.59280000       1.20490000
C        2.03360000      -2.74920000       1.29510000
N        2.55900000      -3.45600000       0.30810000
O        2.17210000      -2.82930000      -0.88830000
H        1.26610000       1.78620000       0.10200000
H       -0.25350000       2.00910000      -0.79190000
H       -0.27260000       1.90290000       0.97940000
H       -1.02740000      -0.24790000      -0.04020000
H        0.02120000      -0.95040000      -2.02440000
H        1.45940000       0.04040000      -1.74220000
H        2.21290000      -3.06290000       2.31250000
