15
Properties=species:S:1:pos:R:3 gdb_128074=T pbc="F F F"
C       -0.00560000       1.42110000      -0.07570000
N        0.10770000      -0.01870000       0.02580000
C        0.56880000      -0.63940000       1.14340000
O        0.93050000      -0.06660000       2.15920000
C        0.60890000      -2.12290000       1.05170000
N        0.22910000      -2.81770000      -0.02660000
N        0.43260000      -4.07230000       0.33670000
N        0.91350000      -4.26880000       1.56010000
C        1.03420000      -3.03170000       2.03710000
H        0.61500000       1.81290000      -0.88930000
H       -1.04320000       1.72800000      -0.24880000
H        0.33750000       1.84400000       0.86920000
H       -0.16280000      -0.60130000      -0.75100000
H        0.23360000      -4.84260000      -0.28220000
H        1.40570000      -2.83460000       3.02830000
