27
Properties=species:S:1:pos:R:3 gdb_101672=T pbc="F F F"
C       -0.18260000       1.68790000       0.10290000
C       -0.10580000       0.15780000       0.12200000
C        0.51790000      -0.45160000       1.39400000
C       -0.32750000      -0.15820000       2.64190000
C        0.72890000      -1.96590000       1.18350000
C        1.43700000      -2.75810000       2.29870000
C        1.40670000      -4.26210000       1.99080000
C        2.87550000      -2.28210000       2.51150000
O        3.43350000      -3.01020000       3.59810000
H        0.80780000       2.13580000       0.24450000
H       -0.57260000       2.04580000      -0.85530000
H       -0.83800000       2.07830000       0.88720000
H       -1.11250000      -0.26130000      -0.01640000
H        0.47950000      -0.17560000      -0.74470000
H        1.50000000       0.02420000       1.53010000
H       -1.31680000      -0.62540000       2.55870000
H        0.14310000      -0.54080000       3.55200000
H       -0.47790000       0.91560000       2.78410000
H       -0.25460000      -2.42680000       1.01470000
H        1.28790000      -2.11380000       0.24820000
H        0.90860000      -2.60070000       3.24750000
H        1.89390000      -4.47330000       1.03070000
H        1.93010000      -4.82600000       2.76550000
H        0.37700000      -4.62870000       1.92800000
H        3.45330000      -2.44520000       1.58520000
H        2.89320000      -1.20270000       2.72290000
H        4.34110000      -2.71830000       3.72030000
