21
Properties=species:S:1:pos:R:3 gdb_92627=T pbc="F F F"
C       -0.03740000       1.55720000      -0.03950000
C        0.13310000       0.04090000       0.01810000
C        0.81450000      -0.57750000      -1.21840000
C        1.24270000      -1.98760000      -0.76610000
O        2.53350000      -2.39800000      -1.20730000
C        3.42020000      -2.07860000      -0.16160000
O        2.72580000      -2.29070000       1.04440000
C        1.37560000      -1.91360000       0.79110000
C        1.01850000      -0.46380000       1.17440000
H        0.93390000       2.05420000      -0.14590000
H       -0.66020000       1.85610000      -0.88910000
H       -0.51010000       1.93980000       0.87120000
H       -0.86180000      -0.41660000       0.12460000
H        0.17500000      -0.59160000      -2.10490000
H        1.71280000      -0.00090000      -1.47350000
H        0.53420000      -2.75240000      -1.09470000
H        4.28430000      -2.74750000      -0.20350000
H        3.75590000      -1.02720000      -0.24040000
H        0.73920000      -2.63830000       1.30540000
H        1.94230000       0.12710000       1.21880000
H        0.53790000      -0.38920000       2.15350000
