20
Properties=species:S:1:pos:R:3 gdb_14057=T pbc="F F F"
C       -0.00080000       0.81550000      -2.18090000
C        0.02360000      -0.27970000      -1.13640000
C        1.27030000      -0.62940000      -0.31390000
C        2.59440000       0.08750000      -0.46880000
C        0.08570000       0.02180000       0.32810000
C       -0.02480000       1.35530000       1.06270000
C       -0.90060000       0.55270000       2.04880000
O       -0.73530000      -0.66120000       1.28210000
H        0.56700000       1.69650000      -1.86740000
H        0.42520000       0.47160000      -3.13010000
H       -1.02780000       1.14250000      -2.37840000
H       -0.59370000      -1.14240000      -1.37670000
H        1.35830000      -1.69000000      -0.08890000
H        2.46540000       1.16390000      -0.61500000
H        3.21740000      -0.04850000       0.42230000
H        3.15740000      -0.29490000      -1.32750000
H        0.90820000       1.74520000       1.47490000
H       -0.53910000       2.15120000       0.52000000
H       -0.50040000       0.44960000       3.06410000
H       -1.95200000       0.85690000       2.10640000
