18
Properties=species:S:1:pos:R:3 gdb_70222=T pbc="F F F"
O       -0.15600000       1.30330000       0.38650000
C        0.05110000      -0.00930000      -0.05820000
C       -0.50470000      -0.40910000      -1.40870000
C       -1.19300000      -0.83260000      -0.13020000
O       -1.13590000      -2.18910000       0.24160000
C       -0.27230000      -2.59750000       1.23050000
N       -0.30440000      -3.78290000       1.67030000
C        0.73730000      -1.58680000       1.71480000
C        1.24860000      -0.73340000       0.54250000
H        0.47970000       1.87170000      -0.06300000
H       -0.99900000       0.35750000      -1.99480000
H        0.01550000      -1.17460000      -1.97450000
H       -2.13740000      -0.36300000       0.12550000
H       -1.05840000      -4.30410000       1.21690000
H        0.26290000      -0.92200000       2.44780000
H        1.52900000      -2.13450000       2.22700000
H        1.74740000      -1.36720000      -0.19750000
H        1.97930000       0.00250000       0.89020000
