15
Properties=species:S:1:pos:R:3 gdb_50419=T pbc="F F F"
O        0.00610000       0.00530000       0.19300000
C        0.04510000       1.21260000       0.10510000
N        1.19630000       1.92450000      -0.04290000
C        2.51490000       1.28470000      -0.04740000
C        3.43770000       2.46760000       0.00640000
C        2.77620000       3.61900000       0.00060000
C        1.27780000       3.38560000      -0.06230000
C        0.67490000       3.98340000      -1.27290000
N        0.20050000       4.46380000      -2.21030000
H       -0.85290000       1.86000000       0.13530000
H        2.61750000       0.61290000       0.81350000
H        2.66180000       0.67200000      -0.94670000
H        4.51390000       2.35820000       0.04330000
H        3.18770000       4.61840000       0.02000000
H        0.76380000       3.82740000       0.80380000
