20
Properties=species:S:1:pos:R:3 gdb_83297=T pbc="F F F"
C       -0.25970000       1.55420000       0.06220000
C        0.04360000       0.06490000      -0.02330000
N        0.71150000      -0.42940000      -1.26300000
C        2.03630000       0.22860000      -1.40950000
C        2.93410000      -0.34240000      -0.25820000
C        1.96200000      -1.35520000       0.41190000
C        1.13020000      -1.78430000      -0.82270000
C        0.93210000      -0.48060000       1.12170000
O        0.83090000      -0.23270000       2.29540000
H        0.64520000       2.16720000       0.09330000
H       -0.86780000       1.87430000      -0.78810000
H       -0.81220000       1.74760000       0.98510000
H       -0.91040000      -0.47850000       0.03820000
H        2.43910000      -0.03790000      -2.39030000
H        1.93560000       1.31360000      -1.38360000
H        3.81570000      -0.86090000      -0.64640000
H        3.28100000       0.42460000       0.43860000
H        2.43000000      -2.10980000       1.04150000
H        0.26190000      -2.40570000      -0.58710000
H        1.72480000      -2.28020000      -1.59520000
