11
Properties=species:S:1:pos:R:3 gdb_129175=T pbc="F F F"
N        0.09010000       1.22360000       0.00720000
C       -0.03760000      -0.02660000       0.00110000
N       -1.22920000      -0.72870000       0.00390000
C       -1.06530000      -2.11340000      -0.00500000
C        0.39440000      -2.21370000      -0.01420000
O        0.98810000      -0.95850000      -0.01050000
N        1.11500000      -3.28040000      -0.02480000
N        1.72710000      -4.24340000      -0.03400000
O       -1.92010000      -2.96320000      -0.00500000
H        1.06850000       1.50030000       0.00280000
H       -2.12460000      -0.26760000       0.01160000
