19
Properties=species:S:1:pos:R:3 gdb_120214=T pbc="F F F"
C        0.01040000       1.34830000       0.13880000
O       -0.01830000      -0.05820000       0.15960000
C       -1.29400000      -0.58530000      -0.15040000
C       -1.19420000      -2.09640000      -0.09260000
C       -1.15150000      -2.72470000       1.34260000
O       -2.59990000      -2.49570000       1.42310000
C       -2.54940000      -2.87550000       0.00740000
C       -2.05440000      -4.33120000       0.09250000
C       -1.09380000      -4.22640000       1.01310000
H        1.02650000       1.65990000       0.39370000
H       -0.24440000       1.74830000      -0.85590000
H       -0.68950000       1.78300000       0.87000000
H       -2.05100000      -0.22650000       0.56170000
H       -1.60400000      -0.26600000      -1.16160000
H       -0.45970000      -2.47110000      -0.80910000
H       -0.57510000      -2.30830000       2.16640000
H       -3.44360000      -2.62650000      -0.56360000
H       -2.41460000      -5.17890000      -0.47070000
H       -0.42550000      -4.96370000       1.43220000
