23
Properties=species:S:1:pos:R:3 gdb_100086=T pbc="F F F"
C       -0.13950000       1.47120000       0.20930000
C        0.02380000      -0.02710000      -0.05840000
C        0.77570000      -0.41370000      -1.35490000
C        0.03010000       0.10120000      -2.59790000
C        2.22420000       0.11000000      -1.33730000
N        0.76410000      -1.89390000      -1.36490000
C        1.36630000      -2.66990000      -2.32550000
N        1.37580000      -4.03120000      -2.01160000
O        1.87230000      -2.24430000      -3.35030000
H        0.82570000       1.97770000       0.29920000
H       -0.70790000       1.96710000      -0.58260000
H       -0.68020000       1.62770000       1.14760000
H        0.55580000      -0.47920000       0.79130000
H       -0.96690000      -0.49850000      -0.09200000
H        0.04280000       1.19400000      -2.63100000
H        0.50830000      -0.27850000      -3.50120000
H       -1.01250000      -0.23290000      -2.58670000
H        2.74500000      -0.22130000      -0.43220000
H        2.76320000      -0.26860000      -2.20710000
H        2.24820000       1.20320000      -1.36420000
H        0.64800000      -2.32610000      -0.46120000
H        0.58490000      -4.38890000      -1.49560000
H        1.61510000      -4.59410000      -2.81450000
