23
Properties=species:S:1:pos:R:3 gdb_105868=T pbc="F F F"
C        0.10610000       1.62260000      -0.31850000
C        0.23110000       0.12100000      -0.15470000
C        1.46600000      -0.69790000      -0.41750000
C        2.72990000       0.00400000       0.10280000
C        2.13670000      -0.03540000       1.55270000
C        2.08700000       1.20450000       2.43950000
C        0.84230000      -0.65310000       0.99060000
C        0.06630000      -1.70380000       1.71970000
O       -0.67890000      -1.06550000       2.75650000
H        1.04660000       2.14930000      -0.14810000
H       -0.21890000       1.86200000      -1.33750000
H       -0.63700000       2.03310000       0.37340000
H       -0.66050000      -0.39830000      -0.50630000
H        1.46690000      -1.51970000      -1.12540000
H        3.63610000      -0.59680000      -0.00050000
H        2.93200000       0.99450000      -0.31800000
H        2.65890000      -0.82570000       2.10550000
H        1.62540000       2.05990000       1.94100000
H        1.50180000       0.99360000       3.34040000
H        3.09510000       1.50260000       2.75000000
H       -0.60030000      -2.23310000       1.01890000
H        0.75620000      -2.45210000       2.14450000
H       -1.08670000      -1.75050000       3.29520000
