21
Properties=species:S:1:pos:R:3 gdb_104086=T pbc="F F F"
C        0.47130000       1.63380000      -0.19250000
C        0.01250000       0.19890000       0.11700000
C        0.32320000      -0.75890000      -1.01130000
C        1.30560000      -1.60590000      -0.70830000
C        1.81870000      -1.39480000       0.69250000
C        0.75090000      -0.45310000       1.32990000
O        1.31730000       0.54190000       2.16660000
C       -0.24580000      -1.26620000       2.16270000
O        0.47470000      -1.78630000       3.27960000
H        1.54310000       1.66660000      -0.40700000
H       -0.06220000       2.01860000      -1.06790000
H        0.27720000       2.29430000       0.65520000
H       -1.06810000       0.23420000       0.31720000
H       -0.18390000      -0.70060000      -1.96890000
H        1.71670000      -2.35350000      -1.37830000
H        1.93920000      -2.32190000       1.26300000
H        2.79420000      -0.89250000       0.69520000
H        1.50460000       0.09900000       3.00420000
H       -1.05210000      -0.59900000       2.49830000
H       -0.68310000      -2.07170000       1.55580000
H       -0.15410000      -2.13010000       3.91960000
