19
Properties=species:S:1:pos:R:3 gdb_101931=T pbc="F F F"
C       -0.43430000       1.19740000       0.18940000
O        0.06560000      -0.12670000       0.07200000
C        0.77950000      -0.39170000      -1.12570000
C        1.62960000      -1.62370000      -0.90000000
C        2.20980000      -1.94790000       0.41900000
N        1.07410000      -2.74020000      -0.10420000
C       -0.23560000      -0.54970000      -2.28430000
N       -0.61590000      -1.82380000      -2.56610000
O       -0.68440000       0.42610000      -2.85920000
H        0.38760000       1.92800000       0.18230000
H       -1.12760000       1.44280000      -0.62120000
H       -0.95170000       1.24860000       1.15010000
H        1.41340000       0.46640000      -1.39280000
H        2.16530000      -1.94710000      -1.79000000
H        3.15560000      -2.47870000       0.47220000
H        2.00460000      -1.26750000       1.23840000
H        0.23610000      -2.39080000       0.35950000
H       -0.27040000      -2.61410000      -2.04560000
H       -1.34000000      -1.96150000      -3.25230000
