19
Properties=species:S:1:pos:R:3 gdb_56655=T pbc="F F F"
C        0.06820000       1.40360000      -0.32070000
C        0.09690000      -0.05530000       0.05190000
O        1.39030000      -0.70250000       0.09440000
C        0.63350000      -0.60220000       1.31110000
C        1.20560000       0.26020000       2.40960000
C        0.08930000      -1.97800000       1.76120000
O       -0.26660000      -2.77210000       0.64580000
C        1.04910000      -2.67940000       2.62770000
C        1.83930000      -3.26680000       3.31720000
H        0.86180000       1.97270000       0.16590000
H        0.19020000       1.51310000      -1.40330000
H       -0.89770000       1.84360000      -0.04950000
H       -0.65740000      -0.66480000      -0.44370000
H        1.53920000       1.22610000       2.02970000
H        0.45160000       0.43530000       3.18530000
H        2.05630000      -0.24080000       2.87820000
H       -0.83770000      -1.81110000       2.32460000
H        0.49230000      -2.72160000       0.04620000
H        2.53030000      -3.79360000       3.92820000
