21
Properties=species:S:1:pos:R:3 gdb_100585=T pbc="F F F"
C        0.33590000       1.68870000       0.05980000
C        0.05480000       0.18330000       0.07160000
C        0.49040000      -0.54310000      -1.20930000
C        2.02090000      -0.53470000      -1.42460000
C        0.00360000      -1.98840000      -1.21770000
O       -0.40030000      -2.55980000      -0.23170000
C        0.08830000      -2.74310000      -2.55470000
C        1.10810000      -3.86580000      -2.44800000
O        2.05820000      -3.98370000      -3.17610000
H        1.40680000       1.90910000       0.01270000
H       -0.14220000       2.17770000      -0.79680000
H       -0.05330000       2.15960000       0.96750000
H        0.54740000      -0.28760000       0.92950000
H       -1.01720000       0.01300000       0.21930000
H        0.03110000      -0.05120000      -2.08000000
H        2.31630000      -1.09640000      -2.31550000
H        2.38510000       0.48830000      -1.54370000
H        2.53040000      -0.97840000      -0.56260000
H       -0.89510000      -3.20210000      -2.71250000
H        0.34020000      -2.10360000      -3.40170000
H        0.91160000      -4.57350000      -1.61550000
