15
Properties=species:S:1:pos:R:3 gdb_9191=T pbc="F F F"
C        0.30890000       0.89100000      -0.13110000
O       -0.18260000      -0.25180000       0.57220000
C       -1.36950000      -0.73380000       0.15530000
N       -2.02270000      -0.19870000      -0.79330000
N       -1.69890000      -1.81840000       0.96060000
C       -2.77230000      -2.71300000       0.60750000
C       -2.50640000      -3.56880000      -0.56850000
N       -2.28190000      -4.24470000      -1.47800000
H        1.27170000       1.12180000       0.32630000
H        0.42960000       0.66830000      -1.19410000
H       -0.37830000       1.73430000      -0.02720000
H       -2.88060000      -0.69150000      -1.01870000
H       -0.90820000      -2.23060000       1.43350000
H       -2.98500000      -3.36060000       1.46320000
H       -3.68550000      -2.13740000       0.42160000
