16
Properties=species:S:1:pos:R:3 gdb_132556=T pbc="F F F"
C       -0.03040000       1.49690000      -0.02100000
C        0.00880000      -0.00660000      -0.00680000
N        0.02010000      -0.65350000      -1.17790000
C        0.06130000      -1.99050000      -1.19240000
N        0.13740000      -2.58520000      -2.44390000
C        0.08160000      -2.75800000      -0.01680000
C        0.06100000      -2.09450000       1.19950000
C        0.02760000      -0.70970000       1.19360000
F        0.00820000      -0.03060000       2.35350000
H        0.86040000       1.91920000       0.45680000
H       -0.08120000       1.84830000      -1.05200000
H       -0.89540000       1.87620000       0.53330000
H       -0.14260000      -1.96730000      -3.19180000
H       -0.25140000      -3.51250000      -2.52070000
H        0.11900000      -3.84070000      -0.06100000
H        0.07260000      -2.62950000       2.14250000
