16
Properties=species:S:1:pos:R:3 gdb_12638=T pbc="F F F"
O       -0.41000000       1.32440000       0.80280000
C       -0.03070000       0.13850000       0.08930000
C        0.85970000      -0.76550000       0.90620000
C        0.15690000      -1.74440000       1.47970000
C       -1.30620000      -1.65860000       1.11760000
O       -2.01130000      -0.99020000       2.16420000
C       -1.27920000      -0.75230000      -0.14520000
O       -2.46300000       0.00230000      -0.28470000
H       -0.68210000       1.02620000       1.68320000
H        0.41870000       0.49670000      -0.84030000
H        1.91960000      -0.58010000       1.03640000
H        0.54960000      -2.49650000       2.15420000
H       -1.76070000      -2.63970000       0.92180000
H       -2.80190000      -0.63690000       1.72770000
H       -1.13700000      -1.36930000      -1.03930000
H       -2.21950000       0.89880000      -0.00160000
