15
Properties=species:S:1:pos:R:3 gdb_51451=T pbc="F F F"
O       -0.05850000      -0.01880000       0.00740000
C       -0.01570000       1.17190000       0.00430000
O        1.14440000       1.85810000      -0.10410000
C        1.09490000       3.27410000      -0.13420000
C        2.17310000       4.00310000       0.65980000
C        3.51250000       3.67570000       0.10550000
C        2.67690000       4.71700000      -0.63130000
C        1.62370000       4.00390000      -1.41780000
O        1.20500000       4.07060000      -2.53540000
H       -0.89730000       1.83600000       0.09340000
H        0.08120000       3.63280000       0.08590000
H        2.02680000       4.45620000       1.63080000
H        4.36150000       4.09340000       0.63570000
H        3.69600000       2.70540000      -0.34280000
H        3.02500000       5.73110000      -0.77450000
