16
Properties=species:S:1:pos:R:3 gdb_18747=T pbc="F F F"
O       -0.13280000       1.44430000       0.45900000
C       -0.00010000       0.09480000       0.08440000
C        0.45800000      -0.93210000       1.16850000
C       -0.88540000      -1.69220000       1.02130000
C       -1.98990000      -1.22270000       2.00760000
C       -2.42730000      -0.17320000       0.96470000
O       -3.32150000       0.61750000       0.91830000
C       -1.36640000      -0.63130000      -0.04960000
H        0.74570000       1.83430000       0.51350000
H        0.58540000      -0.00610000      -0.83940000
H        1.34230000      -1.50740000       0.88390000
H        0.62680000      -0.49040000       2.15480000
H       -0.84200000      -2.75790000       0.80550000
H       -2.78280000      -1.95940000       2.17740000
H       -1.66420000      -0.83740000       2.97830000
H       -1.72110000      -0.84680000      -1.05810000
