20
Properties=species:S:1:pos:R:3 gdb_61981=T pbc="F F F"
C       -0.10630000       1.62900000      -0.01250000
C       -0.03330000       0.08910000       0.02540000
C        0.72680000      -0.46920000       1.25170000
C        2.20940000      -0.09770000       1.26520000
C        2.98010000      -0.76370000       2.40370000
C        4.44860000      -0.39700000       2.52080000
O        2.44840000      -1.53690000       3.16560000
C       -1.38820000      -0.47420000      -0.01480000
N       -2.45780000      -0.91140000      -0.03950000
H        0.89600000       2.05770000      -0.08730000
H       -0.68620000       1.96990000      -0.87330000
H       -0.58240000       2.01450000       0.89370000
H        0.47560000      -0.25720000      -0.88450000
H        0.24620000      -0.11280000       2.16860000
H        0.63430000      -1.55820000       1.26980000
H        2.69520000      -0.38550000       0.32110000
H        2.36060000       0.98630000       1.34620000
H        4.97340000      -0.59490000       1.57960000
H        4.55570000       0.67470000       2.72430000
H        4.90900000      -0.96790000       3.32770000
