16
Properties=species:S:1:pos:R:3 gdb_21952=T pbc="F F F"
O       -0.10050000       1.41780000       0.01170000
C       -0.03530000       0.00730000       0.15540000
C       -1.39430000      -0.56390000      -0.25490000
C       -1.45700000      -2.05290000      -0.10190000
N       -1.19560000      -2.85350000      -1.13620000
N       -1.30920000      -4.10050000      -0.63960000
C       -1.63660000      -4.12290000       0.67420000
C       -1.74060000      -2.80610000       1.06480000
H        0.76270000       1.78160000       0.22820000
H        0.74800000      -0.43010000      -0.48220000
H        0.18860000      -0.28020000       1.19550000
H       -2.16690000      -0.08530000       0.35640000
H       -1.58560000      -0.29530000      -1.29750000
H       -1.16930000      -4.88350000      -1.25470000
H       -1.77170000      -5.04900000       1.21050000
H       -1.99140000      -2.43660000       2.04610000
