14
Properties=species:S:1:pos:R:3 gdb_31473=T pbc="F F F"
N        0.34100000       1.38210000      -0.27940000
C       -0.10260000       0.04280000       0.11800000
C        0.65800000      -0.42980000       1.31150000
N        0.21130000      -0.88700000       2.43360000
C        1.35900000      -1.19880000       3.16380000
C        2.45490000      -0.89850000       2.41660000
O        2.02260000      -0.41130000       1.22890000
C        1.32380000      -1.73820000       4.47580000
N        1.31710000      -2.17990000       5.54520000
H        1.28810000       1.33650000      -0.64290000
H       -0.24330000       1.71660000      -1.03880000
H       -1.15310000       0.08240000       0.41500000
H       -0.01560000      -0.72180000      -0.67410000
H        3.51730000      -0.96430000       2.57380000
