21
Properties=species:S:1:pos:R:3 gdb_105525=T pbc="F F F"
C       -0.08190000       1.31220000       0.24260000
O        0.02520000      -0.07700000       0.00650000
C        0.67500000      -0.51460000      -1.16590000
C        0.28820000       0.14390000      -2.51950000
O        1.62040000       0.64600000      -2.70620000
C        2.08590000       0.05110000      -1.47490000
C        0.58750000      -2.05220000      -1.11030000
C       -0.85370000      -2.55620000      -1.12260000
O        1.36870000      -2.65220000      -2.13470000
H        0.89520000       1.80990000       0.28370000
H       -0.69930000       1.82020000      -0.50960000
H       -0.56640000       1.41880000       1.21600000
H       -0.00710000      -0.55290000      -3.31650000
H       -0.46150000       0.94220000      -2.47230000
H        2.46520000       0.79980000      -0.77050000
H        2.84930000      -0.71200000      -1.65130000
H        1.06710000      -2.35410000      -0.17170000
H       -1.35890000      -2.27470000      -2.05580000
H       -0.86960000      -3.64660000      -1.04520000
H       -1.41830000      -2.12810000      -0.29250000
H        0.87260000      -2.60810000      -2.95910000
