21
Properties=species:S:1:pos:R:3 gdb_68362=T pbc="F F F"
C       -0.04600000       1.55660000       0.06000000
C        0.06040000       0.04370000      -0.03380000
C        1.24210000      -0.57820000      -0.84090000
C        1.21400000      -1.74920000       0.18020000
C        0.59690000      -0.75010000       1.19770000
C        0.16770000      -2.78320000      -0.23810000
C       -1.17220000      -2.13500000      -0.60750000
O       -2.12060000      -2.79250000      -0.96250000
C       -1.24930000      -0.60620000      -0.50310000
H        0.89820000       1.99790000       0.39600000
H       -0.29570000       1.99800000      -0.91210000
H       -0.82740000       1.85640000       0.76840000
H        1.07860000      -0.81060000      -1.89880000
H        2.14990000       0.02380000      -0.74380000
H        2.16370000      -2.22160000       0.44090000
H        1.36700000      -0.18470000       1.73000000
H       -0.13060000      -1.13260000       1.92180000
H        0.50040000      -3.36740000      -1.10520000
H       -0.02720000      -3.50810000       0.56200000
H       -2.07640000      -0.36610000       0.17780000
H       -1.54890000      -0.22580000      -1.48850000
