23
Properties=species:S:1:pos:R:3 gdb_65503=T pbc="F F F"
C        0.06090000       1.63580000      -0.08130000
C        0.05730000       0.10930000      -0.04150000
C        1.16780000      -0.61430000      -0.90060000
C        1.68760000      -1.30430000       0.36560000
C        2.13690000      -0.27800000       1.36460000
C        0.66600000      -0.55200000       1.21980000
C       -1.30000000      -0.51840000      -0.32480000
C       -2.61370000       0.07130000       0.12530000
C       -2.27650000       0.00700000      -1.34640000
H        1.05960000       2.02830000       0.12770000
H       -0.23320000       2.01520000      -1.06580000
H       -0.61770000       2.06250000       0.66440000
H        0.73710000      -1.29610000      -1.63720000
H        1.88640000       0.03810000      -1.40950000
H        1.99800000      -2.34010000       0.43220000
H        2.58510000      -0.67290000       2.27120000
H        2.57530000       0.65990000       1.03220000
H        0.07370000      -0.91510000       2.05260000
H       -1.25670000      -1.60400000      -0.26370000
H       -3.37040000      -0.60160000       0.51410000
H       -2.61410000       1.04900000       0.59370000
H       -2.05310000       0.94170000      -1.84830000
H       -2.80180000      -0.70970000      -1.96820000
