19
Properties=species:S:1:pos:R:3 gdb_66342=T pbc="F F F"
C        0.12920000       1.53030000      -0.16360000
C       -0.01500000       0.00240000      -0.08890000
O        0.61400000      -0.51940000      -1.25300000
C        1.01620000      -1.88050000      -1.16010000
C        2.04690000      -2.07890000      -0.05060000
C        1.53130000      -1.45600000       1.21790000
C        0.57200000      -0.53420000       1.19550000
C       -1.51680000      -0.34300000      -0.13430000
O       -2.32560000       0.04890000       0.66450000
H        1.18190000       1.80580000      -0.06800000
H       -0.24320000       1.89270000      -1.12620000
H       -0.44750000       1.99680000       0.63780000
H        0.14700000      -2.53020000      -0.97030000
H        1.41930000      -2.13750000      -2.14320000
H        2.23570000      -3.14970000       0.09400000
H        3.00600000      -1.62970000      -0.34110000
H        1.94990000      -1.78600000       2.16470000
H        0.15430000      -0.11550000       2.10540000
H       -1.79840000      -0.98110000      -1.00320000
