16
Properties=species:S:1:pos:R:3 gdb_52955=T pbc="F F F"
C        0.03390000       1.41500000       0.07700000
C       -0.00810000      -0.03710000       0.02250000
C       -0.04310000      -1.24110000      -0.01580000
C       -0.06600000      -2.65450000      -0.06920000
C       -0.38390000      -3.54030000      -1.22990000
C       -1.18790000      -3.68780000       0.05850000
C       -0.30370000      -4.30460000       1.08780000
N       -0.42190000      -5.24110000       1.91060000
O        0.75410000      -3.42060000       0.87540000
H        0.73930000       1.75130000       0.84470000
H        0.35250000       1.84310000      -0.87950000
H       -0.94840000       1.83260000       0.32360000
H       -0.92710000      -3.06900000      -2.04230000
H        0.33000000      -4.30460000      -1.52000000
H       -2.25870000      -3.56060000       0.11110000
H        0.41840000      -5.33750000       2.48330000
