18
Properties=species:S:1:pos:R:3 gdb_32537=T pbc="F F F"
O       -0.03510000       1.42750000       0.00820000
C        0.00950000       0.00780000       0.00120000
C       -1.39000000      -0.52050000       0.01190000
C       -2.53940000       0.23410000       0.02310000
N       -3.60670000      -0.62750000       0.03020000
C       -3.16000000      -1.92450000       0.02340000
C       -1.78540000      -1.89560000       0.01210000
C       -0.88020000      -3.08660000       0.00170000
O       -1.67210000      -4.26580000       0.00940000
H        0.86900000       1.75300000       0.00160000
H        0.54860000      -0.36320000      -0.88880000
H        0.56510000      -0.37150000       0.87760000
H       -2.66810000       1.30270000       0.02670000
H       -4.57170000      -0.35010000       0.03930000
H       -3.83670000      -2.76150000       0.02740000
H       -0.22670000      -3.05900000      -0.88860000
H       -0.20780000      -3.06000000       0.87780000
H       -1.07890000      -5.02180000       0.00310000
