19
Properties=species:S:1:pos:R:3 gdb_73298=T pbc="F F F"
O       -0.06070000       1.37050000       0.06280000
C       -0.00380000      -0.02240000       0.02850000
C        0.92120000      -0.72640000       1.02850000
C        0.60200000      -2.20030000       0.67880000
C       -0.42770000      -1.97930000      -0.43570000
O       -0.93810000      -3.10370000      -1.08350000
C       -1.36140000      -0.77080000      -0.04810000
C       -1.46290000      -0.41050000      -1.55260000
C        0.02230000      -0.80130000      -1.34070000
H        0.82570000       1.71140000      -0.09760000
H        1.97360000      -0.46910000       0.86200000
H        0.67210000      -0.45820000       2.05940000
H        1.46850000      -2.76080000       0.31570000
H        0.17660000      -2.75430000       1.52350000
H       -1.36370000      -3.66280000      -0.42470000
H       -2.14670000      -0.76010000       0.71140000
H       -2.05160000      -1.08740000      -2.17220000
H       -1.65820000       0.63760000      -1.78100000
H        0.83360000      -0.82440000      -2.07200000
