21
Properties=species:S:1:pos:R:3 gdb_97403=T pbc="F F F"
C       -0.00580000       1.34160000      -0.25920000
N        0.02720000      -0.06450000       0.08220000
C       -1.05930000      -0.69520000       0.03900000
O       -1.11470000      -2.00010000       0.37810000
C       -2.35720000      -2.65240000       0.16600000
C       -2.51580000      -3.31530000      -1.22650000
N       -2.08940000      -4.59590000      -0.63540000
C       -2.75000000      -5.81040000      -1.04880000
C       -2.32050000      -4.08590000       0.72900000
H        0.68030000       1.53420000      -1.09190000
H       -1.00500000       1.71290000      -0.54200000
H        0.35210000       1.93540000       0.58980000
H       -2.02890000      -0.25760000      -0.25040000
H       -3.18040000      -2.01300000       0.49750000
H       -3.56640000      -3.30680000      -1.56300000
H       -1.87550000      -2.93740000      -2.03100000
H       -2.53450000      -6.01030000      -2.10370000
H       -2.37220000      -6.65640000      -0.46510000
H       -3.85070000      -5.77330000      -0.92530000
H       -1.52370000      -4.29930000       1.44800000
H       -3.29180000      -4.38250000       1.15790000
