16
Properties=species:S:1:pos:R:3 gdb_128393=T pbc="F F F"
C        0.07830000       1.41170000       0.26000000
N       -0.07100000       0.06010000      -0.24710000
C       -1.25200000      -0.58570000      -0.26320000
N       -2.32800000      -0.02670000       0.17950000
C       -3.50450000      -0.71770000       0.14480000
C       -4.75780000      -0.34290000       0.55050000
C       -5.55590000      -1.47410000       0.26300000
N       -4.87280000      -2.45950000      -0.26920000
O       -3.55720000      -1.98120000      -0.34770000
H        1.12370000       1.70990000       0.16690000
H       -0.54900000       2.10980000      -0.30340000
H       -0.22220000       1.46760000       1.31090000
H        0.73520000      -0.41990000      -0.60500000
H       -1.21190000      -1.59710000      -0.67440000
H       -5.04370000       0.59930000       0.98430000
H       -6.61650000      -1.61030000       0.42560000
