25
Properties=species:S:1:pos:R:3 gdb_58457=T pbc="F F F"
C        0.21270000       1.52530000      -0.09220000
C        0.09010000      -0.00620000       0.00500000
C        0.75580000      -0.64600000      -1.22220000
C        0.65100000      -0.53110000       1.34420000
C       -0.00200000       0.13420000       2.55690000
C        0.80120000      -2.06590000       1.52970000
C        2.28850000      -1.75310000       1.79650000
C        3.35060000      -2.45560000       0.97530000
O        2.10250000      -0.36880000       1.41380000
H        1.25410000       1.83270000       0.04980000
H       -0.10870000       1.87210000      -1.07910000
H       -0.39870000       2.04160000       0.65170000
H       -0.97770000      -0.27060000      -0.00430000
H        1.83020000      -0.44130000      -1.22220000
H        0.61470000      -1.72950000      -1.26460000
H        0.33050000      -0.22890000      -2.14030000
H       -1.09170000       0.02040000       2.52680000
H        0.36110000      -0.32190000       3.48250000
H        0.23480000       1.19960000       2.59700000
H        0.23550000      -2.49870000       2.35680000
H        0.63210000      -2.66150000       0.63180000
H        2.54820000      -1.81540000       2.86360000
H        3.09730000      -2.44690000      -0.08860000
H        4.31870000      -1.96010000       1.10210000
H        3.45630000      -3.49670000       1.30070000
