21
Properties=species:S:1:pos:R:3 gdb_38533=T pbc="F F F"
C       -0.08560000       1.41500000       0.23670000
C        1.29110000       0.86740000      -0.00780000
C        1.78120000       0.12740000       1.25880000
C        0.57940000      -0.80230000       1.09050000
C        0.20460000      -2.02600000       1.44230000
C       -0.92680000      -2.70570000       0.69930000
C       -1.67170000      -1.77640000      -0.28690000
C       -0.72300000      -0.85730000      -1.09320000
C        0.04990000      -0.05590000      -0.08030000
H       -0.37660000       1.75670000       1.22840000
H       -0.49710000       2.00820000      -0.57560000
H        1.92480000       1.22330000      -0.81100000
H        2.73490000      -0.39360000       1.13390000
H        1.83430000       0.73850000       2.16700000
H        0.72750000      -2.59290000       2.20890000
H       -0.51970000      -3.57180000       0.15510000
H       -1.65130000      -3.12860000       1.40790000
H       -2.28230000      -2.38090000      -0.96580000
H       -2.36380000      -1.13990000       0.27770000
H       -0.04090000      -1.47230000      -1.69490000
H       -1.29250000      -0.22880000      -1.78550000
