19
Properties=species:S:1:pos:R:3 gdb_106070=T pbc="F F F"
O        0.08410000       1.37520000       0.26180000
C        0.03940000      -0.02640000       0.01720000
C       -1.36130000      -0.53740000       0.02200000
C       -2.38230000      -0.86620000       1.08270000
C       -3.40080000       0.11650000       0.50550000
C       -2.60280000      -0.03680000      -0.81940000
O       -2.46100000       1.01010000      -1.72620000
C       -2.85810000      -1.50560000      -1.26470000
C       -2.04120000      -1.88420000      -0.02680000
H       -0.45970000       1.78880000      -0.41900000
H        0.53030000      -0.27120000      -0.93880000
H        0.62580000      -0.50100000       0.81190000
H       -2.19770000      -1.09660000       2.12410000
H       -4.46430000      -0.15220000       0.49860000
H       -3.26170000       1.11540000       0.92760000
H       -3.33390000       1.29910000      -2.01520000
H       -3.89690000      -1.84790000      -1.34610000
H       -2.31310000      -1.73270000      -2.18500000
H       -1.61240000      -2.84790000       0.21640000
