15
Properties=species:S:1:pos:R:3 gdb_16327=T pbc="F F F"
O        0.12990000       1.43010000       0.13150000
C        0.07350000       0.02910000      -0.07130000
C       -1.35400000      -0.43870000       0.05730000
C       -1.97730000      -1.14260000       1.21480000
N       -1.89780000      -1.87660000      -0.04450000
C       -3.06980000      -1.37520000      -0.85590000
C       -2.42890000       0.02480000      -0.86910000
O       -2.53200000       1.00490000      -1.55750000
H       -0.44550000       1.83330000      -0.53130000
H        0.46420000      -0.25620000      -1.06010000
H        0.71330000      -0.43470000       0.68510000
H       -1.28490000      -1.49640000       1.97370000
H       -2.95020000      -0.83470000       1.59300000
H       -3.08410000      -1.82120000      -1.85350000
H       -4.04160000      -1.51240000      -0.37360000
