19
Properties=species:S:1:pos:R:3 gdb_77713=T pbc="F F F"
C       -0.04110000       1.51600000      -0.00730000
C        0.07590000       0.01080000      -0.05470000
C        0.69070000      -0.75150000      -1.21890000
C        1.97600000      -0.06230000      -1.69440000
O        2.50740000       0.04130000      -0.34160000
C        1.37860000      -0.71480000       0.13770000
C        1.44290000      -2.11410000       0.62190000
C        0.82250000      -2.92500000      -0.24800000
C        0.30440000      -2.20060000      -1.49160000
H        0.90070000       1.99310000      -0.28700000
H       -0.82780000       1.87180000      -0.68090000
H       -0.28910000       1.84720000       1.00640000
H       -0.76340000      -0.52550000       0.38100000
H        2.60380000      -0.71980000      -2.30780000
H        1.89240000       0.91880000      -2.17670000
H        1.88950000      -2.42240000       1.56000000
H        0.65210000      -3.98590000      -0.08570000
H       -0.77630000      -2.34150000      -1.62030000
H        0.77220000      -2.58940000      -2.40610000
