24
Properties=species:S:1:pos:R:3 gdb_122452=T pbc="F F F"
C       -0.00050000       1.68880000       0.86240000
O       -0.29890000       0.31640000       0.79950000
C        0.73340000      -0.44340000       0.21100000
C        0.29250000      -1.90290000       0.18820000
N        1.34840000      -2.71090000      -0.40520000
C        2.27260000      -3.40270000       0.49310000
C        1.30310000      -4.17690000      -0.33900000
C        0.15040000      -4.89150000       0.34340000
C        1.79170000      -4.85880000      -1.60260000
H        0.15890000       2.12020000      -0.13890000
H       -0.85170000       2.18980000       1.33030000
H        0.90150000       1.88500000       1.46440000
H        0.94450000      -0.10100000      -0.81460000
H        1.66980000      -0.34150000       0.78660000
H        0.02240000      -2.19850000       1.21400000
H       -0.61080000      -1.99000000      -0.42600000
H        3.32630000      -3.35740000       0.22650000
H        2.07560000      -3.34360000       1.56380000
H       -0.15120000      -4.41170000       1.27660000
H       -0.72520000      -4.93760000      -0.31500000
H        0.43620000      -5.92240000       0.57820000
H        2.16070000      -5.86780000      -1.38590000
H        0.98000000      -4.94920000      -2.33390000
H        2.59720000      -4.28230000      -2.06320000
