21
Properties=species:S:1:pos:R:3 gdb_74432=T pbc="F F F"
C        0.08970000       1.48850000       0.07020000
C       -0.03570000       0.00120000      -0.01650000
C       -0.13250000      -0.76790000      -1.10840000
C       -0.06970000      -2.23380000      -0.72440000
C       -0.65430000      -3.23860000      -1.69510000
C        1.40700000      -2.48700000      -0.20250000
C        0.93620000      -2.11350000       1.19590000
C       -0.01850000      -0.88890000       1.18630000
C       -0.50960000      -2.24930000       0.78620000
H        1.04450000       1.78210000       0.52500000
H        0.02790000       1.95470000      -0.91690000
H       -0.69930000       1.92020000       0.69960000
H       -0.08410000      -0.42420000      -2.13620000
H       -0.13850000      -3.19840000      -2.66150000
H       -0.56400000      -4.26120000      -1.31300000
H       -1.71640000      -3.03940000      -1.87700000
H        1.64780000      -3.55370000      -0.24450000
H        2.21040000      -1.90920000      -0.67270000
H        1.41050000      -2.40570000       2.12560000
H       -0.26270000      -0.49910000       2.16920000
H       -1.33470000      -2.79170000       1.23390000
