15
Properties=species:S:1:pos:R:3 gdb_132046=T pbc="F F F"
C       -0.02410000       1.53420000       0.01810000
C       -0.00410000       0.02920000       0.00750000
C       -0.10690000      -0.67640000      -1.15300000
F       -0.22950000      -0.05430000      -2.32630000
C       -0.09480000      -2.13060000      -1.23630000
O       -0.18380000      -2.79960000      -2.25020000
N        0.03600000      -2.72530000       0.02680000
C        0.14170000      -2.05550000       1.21160000
C        0.12510000      -0.70030000       1.23410000
H        0.89830000       1.92810000       0.45900000
H       -0.12660000       1.93700000      -0.98940000
H       -0.85620000       1.90360000       0.62760000
H        0.04790000      -3.73560000       0.00410000
H        0.23640000      -2.66800000       2.09920000
H        0.20900000      -0.17020000       2.17360000
