19
Properties=species:S:1:pos:R:3 gdb_16333=T pbc="F F F"
C       -0.04390000       1.59440000      -0.19250000
C        0.05660000       0.09700000       0.06910000
C        1.12090000      -0.76090000      -0.67140000
N        1.65470000      -1.33490000       0.61710000
C        2.16040000      -0.17300000       1.38110000
C        0.70390000      -0.40750000       1.36670000
C       -0.03120000      -0.96180000       2.56470000
O        0.76270000      -1.91030000       3.24780000
H        0.92300000       2.09330000      -0.07380000
H       -0.39360000       1.78790000      -1.21250000
H       -0.75170000       2.06930000       0.49570000
H       -0.93170000      -0.35990000      -0.04730000
H        0.70740000      -1.55260000      -1.29890000
H        1.87820000      -0.21240000      -1.24310000
H        2.69070000      -0.46430000       2.28120000
H        2.59810000       0.65920000       0.83460000
H       -0.27340000      -0.16820000       3.28200000
H       -0.98560000      -1.40190000       2.22780000
H        1.14770000      -2.46980000       2.55800000
