18
Properties=species:S:1:pos:R:3 gdb_73749=T pbc="F F F"
C       -0.03020000       1.46940000       0.07660000
C        0.01050000      -0.01360000       0.01570000
C        0.00350000      -0.85790000      -1.03730000
C       -0.04550000      -0.57010000      -2.41500000
N       -0.08560000      -0.34850000      -3.55350000
C        0.06250000      -2.25340000      -0.38060000
C       -0.97700000      -2.05030000       0.77020000
C        0.07350000      -0.97060000       1.21180000
C        1.15550000      -1.98980000       0.70660000
H        0.85280000       1.86460000       0.59480000
H       -0.07150000       1.90940000      -0.92280000
H       -0.90310000       1.81430000       0.64520000
H        0.06780000      -3.12540000      -1.03140000
H       -1.97600000      -1.70450000       0.49570000
H       -1.03220000      -2.89860000       1.45860000
H        0.09110000      -0.53820000       2.21160000
H        1.29960000      -2.83240000       1.38900000
H        2.11510000      -1.58840000       0.37360000
