17
Properties=species:S:1:pos:R:3 gdb_56445=T pbc="F F F"
O        0.16280000       1.49070000      -0.04740000
C        0.06590000       0.09520000      -0.00790000
C        0.62760000      -0.54740000      -1.20220000
C        1.09260000      -1.07820000      -2.17490000
C        0.78070000      -0.44460000       1.25700000
O        1.34570000       0.35530000       1.97610000
C        0.71400000      -1.89270000       1.53180000
C        1.88730000      -2.52440000       2.27120000
C        0.60540000      -2.31820000       2.99470000
H        0.75070000       1.71510000       0.69510000
H       -0.99330000      -0.20300000       0.07920000
H        1.50060000      -1.53580000      -3.04240000
H        0.20390000      -2.49430000       0.78970000
H        2.16750000      -3.52630000       1.96820000
H        2.70830000      -1.85590000       2.50210000
H        0.55820000      -1.51100000       3.71640000
H       -0.02630000      -3.17330000       3.20490000
