25
Properties=species:S:1:pos:R:3 gdb_101811=T pbc="F F F"
C       -0.20610000       1.53450000       0.20820000
C       -0.04830000       0.03370000      -0.01160000
C        0.85750000      -0.60900000       1.04410000
O       -1.36130000      -0.51460000       0.00790000
C       -1.48960000      -1.80940000      -0.53950000
C       -2.97700000      -2.15230000      -0.63730000
C       -3.72380000      -1.19120000      -1.56820000
C       -3.15130000      -3.60830000      -1.06900000
O       -4.53350000      -3.92870000      -1.00390000
H        0.76550000       2.03610000       0.17280000
H       -0.85220000       1.96700000      -0.56020000
H       -0.66020000       1.72790000       1.18530000
H        0.39180000      -0.13870000      -1.00920000
H        0.43240000      -0.46660000       2.04300000
H        0.98320000      -1.68210000       0.87420000
H        1.85210000      -0.15200000       1.02300000
H       -1.02460000      -1.84500000      -1.54140000
H       -0.97340000      -2.55660000       0.08490000
H       -3.39820000      -2.06310000       0.37260000
H       -3.32580000      -1.25420000      -2.58920000
H       -4.78600000      -1.44140000      -1.60490000
H       -3.60930000      -0.16100000      -1.22480000
H       -2.76250000      -3.74030000      -2.09310000
H       -2.56430000      -4.26660000      -0.40770000
H       -4.65100000      -4.82210000      -1.33860000
