17
Properties=species:S:1:pos:R:3 gdb_35818=T pbc="F F F"
N       -0.12350000      -1.14480000      -0.23790000
C       -0.07240000       0.00250000      -0.10840000
C       -0.01600000       1.44840000       0.04130000
C       -0.48680000       1.96750000       1.42380000
O        0.05610000       3.27790000       1.51450000
C        1.32400000       3.29480000       0.89020000
C        2.51240000       2.68670000       1.68370000
N        2.34040000       1.41590000       0.93990000
C        1.41120000       2.03630000      -0.02170000
H       -0.62510000       1.91090000      -0.74390000
H       -1.57200000       2.04330000       1.51160000
H       -0.10170000       1.31230000       2.21450000
H        1.47680000       4.28710000       0.46530000
H        3.45490000       3.21420000       1.48840000
H        2.36900000       2.59960000       2.76570000
H        3.17480000       0.99920000       0.54860000
H        1.77670000       2.16640000      -1.04380000
