17
Properties=species:S:1:pos:R:3 gdb_89780=T pbc="F F F"
O        0.44550000       0.75970000      -0.76900000
C       -0.02430000      -0.24120000       0.07530000
C       -0.08480000       0.00660000       1.61350000
C       -1.43020000      -0.71210000       1.61920000
C       -1.88640000      -1.83110000       2.44340000
O       -2.46340000      -0.51940000       2.55290000
C       -1.57950000      -0.56370000       0.08560000
C       -2.36830000       0.58000000      -0.32320000
C       -2.95030000       1.57460000      -0.67160000
H       -0.21760000       1.46320000      -0.78850000
H        0.53920000      -1.14740000      -0.15980000
H        0.72230000      -0.39320000       2.23040000
H       -0.21160000       1.07260000       1.82720000
H       -2.53890000      -2.59140000       2.01590000
H       -1.29160000      -2.15120000       3.29800000
H       -1.88280000      -1.46300000      -0.45750000
H       -3.50970000       2.42750000      -0.96840000
