18
Properties=species:S:1:pos:R:3 gdb_49758=T pbc="F F F"
O       -0.06570000       0.12740000      -0.99150000
C        0.41960000       0.66170000      -0.02770000
C        1.19450000       1.96670000      -0.07120000
C        0.92370000       2.86940000      -1.25820000
C        0.78990000       4.13150000      -0.85690000
C        0.93580000       4.23920000       0.64100000
C       -0.35840000       4.47790000       1.46080000
C       -0.44570000       2.93880000       1.57920000
N        0.97200000       2.81490000       1.11390000
H        0.37230000       0.19410000       0.98150000
H        2.25220000       1.63670000      -0.08290000
H        0.87960000       2.49880000      -2.27380000
H        0.62430000       4.98970000      -1.49820000
H        1.80650000       4.84260000       0.92900000
H       -0.17130000       4.97680000       2.41340000
H       -1.17950000       4.97780000       0.94520000
H       -0.61770000       2.52290000       2.57600000
H       -1.17740000       2.50520000       0.88470000
