19
Properties=species:S:1:pos:R:3 gdb_68851=T pbc="F F F"
C       -0.07520000       1.51390000       0.13390000
C       -0.03200000       0.00710000       0.06810000
C        1.28000000      -0.67940000      -0.29210000
C        0.74710000      -0.80090000       1.10170000
O        1.48340000      -0.21020000       2.12570000
C       -0.05340000      -2.03200000       1.39950000
O       -1.32850000      -1.71720000       1.99350000
C       -1.27580000      -2.00330000       0.58910000
C       -1.30770000      -0.76100000      -0.29390000
H        0.84380000       1.90840000       0.57660000
H       -0.19040000       1.95740000      -0.86170000
H       -0.91750000       1.85500000       0.74740000
H        1.27300000      -1.54960000      -0.94240000
H        2.14390000      -0.03360000      -0.40840000
H        0.86320000       0.01520000       2.82980000
H        0.41780000      -2.94520000       1.75550000
H       -1.78980000      -2.91230000       0.28710000
H       -2.20510000      -0.16790000      -0.08400000
H       -1.34190000      -1.04100000      -1.35410000
