14
Properties=species:S:1:pos:R:3 gdb_20703=T pbc="F F F"
C        0.12520000       1.47390000       0.03190000
C        0.00660000      -0.01380000      -0.00990000
N       -0.10700000      -0.63170000      -1.14280000
C       -0.21290000      -2.00600000      -1.11980000
N       -0.21130000      -2.76220000      -0.06900000
N       -0.09270000      -2.10930000       1.10480000
C        0.02470000      -0.73590000       1.28040000
N        0.13790000      -0.11050000       2.39410000
H        1.05430000       1.76180000       0.53500000
H        0.09700000       1.87870000      -0.97960000
H       -0.68250000       1.89750000       0.63800000
H       -0.30710000      -2.50610000      -2.07600000
H       -0.09290000      -2.71160000       1.91550000
H        0.13440000      -0.74680000       3.19380000
