19
Properties=species:S:1:pos:R:3 gdb_66467=T pbc="F F F"
C       -0.01390000       1.43840000       0.03750000
C       -0.01930000      -0.05920000       0.02100000
C        0.44890000      -1.04500000      -1.03050000
C        1.20010000      -0.94130000       0.28140000
C        0.48130000      -2.17240000       0.91120000
C        1.23630000      -3.34440000       1.45860000
O       -0.56590000      -1.64910000       1.77390000
C       -1.09690000      -1.04140000       0.57780000
C       -0.45480000      -2.11520000      -0.34970000
H        0.89550000       1.83530000      -0.42620000
H       -0.86950000       1.84980000      -0.51020000
H       -0.05760000       1.82030000       1.06410000
H        0.77810000      -0.89870000      -2.04910000
H        2.18360000      -0.53830000       0.48740000
H        1.80110000      -3.05180000       2.35070000
H        0.55340000      -4.15300000       1.73390000
H        1.94520000      -3.72010000       0.71420000
H       -2.14600000      -0.75430000       0.64220000
H       -0.96920000      -2.96650000      -0.78960000
