18
Properties=species:S:1:pos:R:3 gdb_54324=T pbc="F F F"
C       -0.68650000       1.27780000       0.03730000
C       -0.15920000      -0.13950000       0.09170000
O        0.12140000      -0.69680000       1.13110000
C       -0.01680000      -0.87510000      -1.21540000
C        0.98010000      -2.01740000      -1.28820000
C       -0.48500000      -2.31490000      -1.23090000
O       -0.30260000      -0.14140000      -2.38290000
C        0.70830000       0.59680000      -2.90470000
N        0.48080000       1.35990000      -3.88150000
H        0.02360000       1.93570000      -0.47610000
H       -1.61470000       1.32040000      -0.54090000
H       -0.84700000       1.63790000       1.05350000
H        1.48910000      -2.15620000      -2.23490000
H        1.57050000      -2.18450000      -0.39530000
H       -0.89550000      -2.69420000      -0.30320000
H       -0.97770000      -2.63050000      -2.14290000
H        1.66860000       0.43550000      -2.39920000
H        1.33930000       1.82810000      -4.16450000
