18
Properties=species:S:1:pos:R:3 gdb_70228=T pbc="F F F"
C       -0.04440000       1.56310000       0.04960000
C        0.05120000       0.05630000       0.00310000
C       -0.81170000      -0.80880000       0.91200000
C        0.68200000      -0.81040000       1.09240000
C        1.48270000      -1.92170000       0.41990000
C        1.17070000      -1.72120000      -1.05860000
C        0.42160000      -0.62500000      -1.26670000
C        1.62690000      -2.61490000      -2.06280000
N        2.02040000      -3.35970000      -2.85910000
H        0.88940000       2.03450000      -0.27530000
H       -0.84810000       1.92930000      -0.59940000
H       -0.25860000       1.90820000       1.06540000
H       -1.39550000      -0.28910000       1.66530000
H       -1.29580000      -1.68260000       0.48780000
H        1.08650000      -0.34880000       1.98550000
H        2.55900000      -1.82440000       0.60560000
H        1.19290000      -2.92150000       0.76330000
H        0.10110000      -0.27430000      -2.24130000
