17
Properties=species:S:1:pos:R:3 gdb_18454=T pbc="F F F"
C       -0.01280000       1.33040000       0.41390000
C        0.00300000      -0.04580000      -0.26370000
C       -1.35760000      -0.70930000      -0.23220000
C       -1.63930000      -2.15050000      -0.13820000
C       -0.62080000      -2.92050000       0.69990000
C       -0.92540000      -1.87680000       1.78670000
O       -0.55320000      -1.66700000       2.89870000
N       -1.98320000      -1.21610000       1.04150000
H        0.96810000       1.80900000       0.34530000
H       -0.74520000       1.99420000      -0.05740000
H       -0.27550000       1.23800000       1.47150000
H        0.29770000       0.05650000      -1.31590000
H        0.76110000      -0.67870000       0.20780000
H       -2.11250000      -0.14790000      -0.78100000
H       -2.44510000      -2.61820000      -0.69180000
H       -0.97480000      -3.91020000       1.00050000
H        0.40740000      -3.00230000       0.34060000
