20
Properties=species:S:1:pos:R:3 gdb_119889=T pbc="F F F"
C        0.02860000       1.53220000      -0.13130000
C       -0.00070000       0.02180000       0.00640000
O        0.68640000      -0.52940000      -1.12900000
C        0.75700000      -1.87120000      -1.20190000
N        0.27200000      -2.63020000      -0.31170000
C        0.39120000      -4.07020000      -0.52810000
C        0.67220000      -4.43950000      -1.98150000
O        1.76330000      -3.67540000      -2.47600000
C        1.46730000      -2.29860000      -2.46980000
H        1.05740000       1.90280000      -0.15240000
H       -0.46990000       1.85110000      -1.05120000
H       -0.48610000       1.99280000       0.71730000
H        0.49420000      -0.31720000       0.92240000
H       -1.02310000      -0.37050000       0.02980000
H        1.19220000      -4.45630000       0.11630000
H       -0.53730000      -4.54960000      -0.19400000
H        0.95780000      -5.49040000      -2.08030000
H       -0.22490000      -4.26570000      -2.59930000
H        0.84480000      -2.01330000      -3.33590000
H        2.41390000      -1.75700000      -2.55640000
