16
Properties=species:S:1:pos:R:3 gdb_84203=T pbc="F F F"
C        0.00130000       1.47690000       0.00640000
N        0.00950000       0.02830000      -0.02660000
C        0.03820000      -0.76860000      -1.15160000
C        0.03800000      -2.08740000      -0.84730000
C        0.00570000      -2.21680000       0.65270000
C       -0.01210000      -0.76550000       1.13570000
O       -0.03900000      -0.32720000       2.25880000
C        0.06440000      -3.17220000      -1.80180000
O        0.06380000      -4.35140000      -1.50750000
H        0.89990000       1.88780000      -0.46490000
H       -0.88270000       1.87870000      -0.49900000
H       -0.02040000       1.77070000       1.05690000
H        0.05750000      -0.31070000      -2.13270000
H       -0.87680000      -2.74760000       1.02450000
H        0.87630000      -2.73890000       1.06300000
H        0.08620000      -2.84420000      -2.86660000
