17
Properties=species:S:1:pos:R:3 gdb_71105=T pbc="F F F"
O        0.08760000       1.41460000       0.05840000
C        0.01960000       0.03860000       0.02040000
C        0.39600000      -0.76380000      -1.26320000
C       -0.57640000      -1.83070000      -0.75000000
C       -0.45840000      -1.87800000       0.75620000
C        0.58730000      -0.84050000       1.17720000
C       -1.31340000      -0.78460000       0.09900000
C       -2.67910000      -0.33630000       0.22000000
O       -2.96750000       0.84720000       0.27940000
H       -0.82110000       1.73550000       0.13950000
H        0.01040000      -0.27070000      -2.15820000
H        1.44590000      -1.04210000      -1.40130000
H       -1.04140000      -2.63490000      -1.30570000
H       -0.83520000      -2.71750000       1.32620000
H        1.64460000      -1.12180000       1.13240000
H        0.34830000      -0.40610000       2.15030000
H       -3.46550000      -1.12020000       0.25700000
