13
Properties=species:S:1:pos:R:3 gdb_129944=T pbc="F F F"
N        0.11810000       1.39430000       0.16470000
C       -0.00030000       0.02520000       0.04200000
C       -1.05160000      -0.83480000      -0.00910000
O       -0.60390000      -2.16820000      -0.03730000
C        0.72770000      -2.08700000      -0.01310000
N        1.74960000      -2.91230000      -0.04590000
C        2.78610000      -2.01590000      -0.00900000
N        2.47750000      -0.71760000       0.04090000
N        1.11830000      -0.79820000       0.04190000
H        0.98030000       1.75200000      -0.22610000
H       -0.68450000       1.91210000      -0.16280000
H       -2.11590000      -0.69330000      -0.01370000
H        3.81780000      -2.33480000      -0.01930000
