20
Properties=species:S:1:pos:R:3 gdb_47731=T pbc="F F F"
O        0.02040000       0.04870000       0.46880000
C        0.01630000       1.20940000       0.11510000
C       -1.30550000       1.95550000      -0.10810000
N       -1.27750000       3.10510000      -1.00870000
C       -0.14090000       3.98640000      -0.73790000
C        1.20860000       3.27100000      -0.88350000
C        1.27680000       2.01790000      -0.01910000
C        2.10780000       2.04200000       1.26960000
C        2.57580000       1.25410000       0.08890000
H       -2.05450000       1.23070000      -0.43750000
H       -1.62580000       2.30220000       0.88700000
H       -1.22400000       2.77880000      -1.96940000
H       -0.19310000       4.84560000      -1.41460000
H       -0.25410000       4.37510000       0.28310000
H        1.34080000       2.99340000      -1.93920000
H        2.03830000       3.94490000      -0.63560000
H        2.60510000       2.97600000       1.51010000
H        1.71750000       1.49410000       2.11960000
H        2.49110000       0.17520000       0.14230000
H        3.41350000       1.63500000      -0.48560000
