20
Properties=species:S:1:pos:R:3 gdb_6580=T pbc="F F F"
C       -0.01630000       1.55500000       0.03730000
C        0.02350000       0.04410000       0.02780000
C        0.97860000      -0.78130000      -0.90780000
C        0.62160000      -1.93120000       0.10170000
C        1.42520000      -3.20620000       0.21560000
C        0.64630000      -0.80320000       1.19520000
C       -0.89880000      -2.01820000      -0.13950000
C       -1.28500000      -0.74260000      -0.18710000
H        0.98070000       1.97810000       0.19740000
H       -0.39590000       1.94740000      -0.91320000
H       -0.66870000       1.92920000       0.83470000
H        0.67500000      -0.91230000      -1.94990000
H        2.02560000      -0.46190000      -0.84330000
H        2.48610000      -2.99390000       0.38410000
H        1.07270000      -3.82370000       1.04970000
H        1.34690000      -3.80690000      -0.69790000
H        1.66110000      -0.48590000       1.46330000
H        0.03650000      -0.95430000       2.09010000
H       -1.47300000      -2.92950000      -0.23990000
H       -2.26570000      -0.31140000      -0.33760000
