14
Properties=species:S:1:pos:R:3 gdb_25306=T pbc="F F F"
O        0.11480000      -0.07790000      -0.00230000
C        0.02850000       1.13590000       0.00940000
C        1.19410000       2.00260000       0.00340000
C        1.36760000       3.39470000       0.01350000
C        0.31760000       4.41350000       0.03480000
O        0.53240000       5.60560000       0.04270000
C        2.76460000       3.64090000      -0.00060000
C        3.39610000       2.41500000      -0.01900000
N        2.44070000       1.44290000      -0.01620000
H       -0.95290000       1.64710000       0.02540000
H       -0.72380000       4.02510000       0.04350000
H        3.23110000       4.61260000       0.00260000
H        4.44500000       2.16400000      -0.03360000
H        2.57340000       0.44280000      -0.02660000
