13
Properties=species:S:1:pos:R:3 gdb_29255=T pbc="F F F"
N        0.01520000       1.41360000       0.15500000
C       -0.03720000       0.03100000       0.04950000
C       -1.14160000      -0.73440000       0.02080000
O       -1.12290000      -2.10650000      -0.02420000
C        0.04210000      -2.81130000      -0.02730000
O        0.04520000      -4.00860000      -0.05280000
N        1.18530000      -2.03030000      -0.00510000
C        1.27070000      -0.64380000       0.01590000
O        2.33560000      -0.06070000      -0.00230000
H        0.93310000       1.76480000      -0.08840000
H       -0.73330000       1.92210000      -0.29100000
H       -2.15710000      -0.36240000       0.03050000
H        2.05940000      -2.53880000      -0.02540000
