18
Properties=species:S:1:pos:R:3 gdb_53959=T pbc="F F F"
C       -0.10060000       1.56720000       0.07530000
C        0.01460000       0.03720000       0.01930000
N        0.70060000      -0.55070000       1.18170000
H        0.01050000      -0.73990000       1.90580000
H        1.62010000      -1.54240000      -0.11600000
H        1.36670000       0.11180000       1.56630000
C       -1.38570000      -0.57600000      -0.09590000
C       -1.69110000      -1.96450000       0.26120000
O       -2.05240000      -0.87520000       1.12990000
C        0.75680000      -0.39010000      -1.27500000
O        1.64040000      -1.37510000      -1.08630000
O        0.52130000       0.09540000      -2.34990000
H        0.88580000       2.02250000       0.21430000
H       -0.51390000       1.95020000      -0.85980000
H       -0.74460000       1.86890000       0.90660000
H       -2.00500000      -0.09170000      -0.84850000
H       -2.52760000      -2.46740000      -0.21880000
H       -0.90600000      -2.61500000       0.63900000
