16
Properties=species:S:1:pos:R:3 gdb_18495=T pbc="F F F"
N       -0.08080000       1.32230000       0.09820000
C       -0.06570000       0.06050000       0.08590000
O       -1.21340000      -0.63130000      -0.04410000
C       -1.14050000      -2.03980000       0.05810000
C       -1.57680000      -2.72150000       1.40670000
C       -2.58610000      -3.53550000       0.58990000
N       -3.51480000      -2.53580000       0.02370000
C       -2.23310000      -2.81100000      -0.66860000
H        0.86930000       1.67780000       0.18190000
H        0.82530000      -0.58040000       0.16220000
H       -0.14810000      -2.39070000      -0.24900000
H       -0.77390000      -3.30110000       1.86600000
H       -2.02970000      -2.04800000       2.13620000
H       -2.87530000      -4.56930000       0.72480000
H       -4.23290000      -3.04100000      -0.49530000
H       -2.21900000      -3.14580000      -1.69820000
