21
Properties=species:S:1:pos:R:3 gdb_101983=T pbc="F F F"
C        0.00770000       1.29170000       0.09470000
N       -0.07430000      -0.12480000      -0.16680000
C        0.51360000      -0.69830000      -1.25290000
C        0.37480000      -2.20280000      -1.22820000
O       -0.15250000      -2.78760000      -0.31030000
N        1.10480000       0.01470000      -2.14110000
C        1.71840000      -0.51830000      -3.34560000
C        1.13610000       0.23230000      -4.55210000
C        3.23830000      -0.31620000      -3.25240000
H        1.04510000       1.62120000       0.23830000
H       -0.39860000       1.86160000      -0.74750000
H       -0.56840000       1.52150000       0.99310000
H       -0.41840000      -0.76190000       0.53250000
H        0.79470000      -2.75340000      -2.08620000
H        1.53070000      -1.59090000      -3.50420000
H        1.31000000       1.30740000      -4.44550000
H        1.60080000      -0.10930000      -5.48290000
H        0.05650000       0.07100000      -4.62580000
H        3.65640000      -0.88060000      -2.41320000
H        3.73150000      -0.64830000      -4.17180000
H        3.46710000       0.74230000      -3.09420000
