14
Properties=species:S:1:pos:R:3 gdb_2020=T pbc="F F F"
N        0.02880000       1.15590000       0.57810000
C       -0.02910000       0.03150000       0.02890000
C       -1.13060000      -0.97210000      -0.25330000
C        0.00390000      -1.77550000      -0.87880000
C        0.36690000      -3.21450000      -0.80170000
C        0.10020000      -2.54340000      -2.14750000
O        0.96360000      -0.73890000      -0.55210000
H        0.98190000       1.52270000       0.57220000
H       -1.59230000      -1.40360000       0.63680000
H       -1.90430000      -0.61860000      -0.93750000
H        1.39700000      -3.45450000      -0.56240000
H       -0.36660000      -3.91240000      -0.41170000
H       -0.81570000      -2.78230000      -2.67780000
H        0.95700000      -2.34730000      -2.78270000
