21
Properties=species:S:1:pos:R:3 gdb_60541=T pbc="F F F"
C        0.12480000       1.70440000      -0.07930000
C       -0.02410000       0.18440000       0.06980000
C        0.33740000      -0.59460000      -1.18570000
C        0.20540000      -0.07790000      -2.55290000
O        1.48880000      -0.17490000      -1.92970000
C        0.78030000      -0.36130000       1.25210000
C        2.28220000      -0.17130000       1.22940000
C        0.09400000      -0.55270000       2.53840000
O        0.34690000      -1.66630000       1.67630000
H        1.10900000       1.96530000      -0.47650000
H       -0.63170000       2.11050000      -0.75640000
H       -0.00070000       2.19860000       0.88860000
H       -1.07410000      -0.05480000       0.28360000
H        0.27580000      -1.67550000      -1.05360000
H        0.03150000      -0.77320000      -3.37310000
H       -0.15090000       0.93550000      -2.72490000
H        2.54420000       0.89020000       1.28060000
H        2.73550000      -0.68170000       2.08260000
H        2.71450000      -0.57520000       0.31000000
H        0.66860000      -0.54060000       3.46390000
H       -0.95360000      -0.27130000       2.64410000
