18
Properties=species:S:1:pos:R:3 gdb_86901=T pbc="F F F"
O        0.52900000       0.54780000      -0.98270000
C        0.04460000      -0.30960000       0.01190000
C        0.41070000       0.11500000       1.45390000
N       -0.65040000      -0.48700000       2.25780000
C       -1.79820000      -0.92690000       1.45290000
C       -1.50110000      -0.36900000       0.06200000
O       -2.02450000       0.94440000      -0.15040000
C       -0.58750000      -0.74240000       3.58860000
O       -1.46860000      -1.28750000       4.22240000
H       -0.14220000       1.24050000      -1.07190000
H        0.44210000      -1.31180000      -0.18440000
H        1.39850000      -0.23800000       1.76000000
H        0.41190000       1.21270000       1.51730000
H       -1.86590000      -2.02120000       1.44570000
H       -2.74060000      -0.54990000       1.86230000
H       -1.91770000      -0.98420000      -0.73780000
H       -2.02420000       1.41910000       0.68810000
H        0.36290000      -0.39490000       4.04060000
