18
Properties=species:S:1:pos:R:3 gdb_80336=T pbc="F F F"
C       -0.03540000       1.58410000      -0.09930000
C        0.02740000       0.08040000       0.06310000
C        1.24820000      -0.76230000      -0.18910000
N        2.44390000      -0.00860000       0.25050000
C        1.96670000      -0.08470000       1.67040000
C        1.97750000       1.17090000       2.42540000
N        1.97710000       2.14900000       3.04140000
C        0.61940000      -0.69050000       1.22010000
N       -0.12480000      -1.53190000       2.08160000
H        0.93770000       2.04330000       0.08090000
H       -0.33940000       1.83650000      -1.12070000
H       -0.75990000       2.02930000       0.58930000
H       -0.86770000      -0.43950000      -0.28070000
H        1.31010000      -1.55410000      -0.92640000
H        3.29330000      -0.55150000       0.13780000
H        2.51900000      -0.83290000       2.25040000
H       -1.10770000      -1.56520000       1.84690000
H        0.23610000      -2.47750000       2.13640000
