19
Properties=species:S:1:pos:R:3 gdb_75346=T pbc="F F F"
C        0.13600000       1.51120000       0.48160000
C       -0.07690000       0.09070000       0.01530000
C       -1.26230000      -0.52410000       0.16110000
C       -1.56420000      -1.91350000      -0.33950000
C       -0.68080000      -2.98020000       0.28980000
O       -0.02380000      -3.87710000      -0.61140000
C        0.77180000      -2.91410000       0.11130000
C        1.43300000      -1.82700000      -0.65580000
C        1.07600000      -0.53430000      -0.65190000
H        0.93700000       1.57090000       1.22840000
H        0.43740000       2.15750000      -0.35260000
H       -0.77260000       1.92850000       0.92270000
H       -2.06980000       0.01970000       0.64540000
H       -2.61850000      -2.15780000      -0.18060000
H       -1.38010000      -1.96510000      -1.41990000
H       -1.06550000      -3.45730000       1.19140000
H        1.40610000      -3.38110000       0.86830000
H        2.33420000      -2.11590000      -1.19290000
H        1.72620000       0.16150000      -1.18270000
