17
Properties=species:S:1:pos:R:3 gdb_19250=T pbc="F F F"
C       -0.23870000       1.52610000      -0.15050000
C        0.06960000       0.04270000      -0.06570000
C        1.19770000      -0.63450000      -0.91510000
C        2.11330000       0.14720000      -1.82140000
O        1.84120000       1.18700000      -2.36710000
C        1.80310000      -1.08870000       0.41600000
C        2.06330000       0.07300000       1.29020000
N        0.69020000      -0.45490000       1.22360000
H        0.64870000       2.15430000      -0.05410000
H       -0.69680000       1.76340000      -1.11400000
H       -0.94100000       1.79230000       0.64670000
H       -0.85900000      -0.52020000      -0.19020000
H        0.80850000      -1.47760000      -1.49780000
H        3.11460000      -0.32710000      -1.95900000
H        2.16820000      -2.08640000       0.63520000
H        2.53470000      -0.11780000       2.24910000
H        2.29840000       1.04320000       0.86000000
