15
Properties=species:S:1:pos:R:3 gdb_9701=T pbc="F F F"
O       -0.10640000       1.44910000       0.02810000
C       -0.01060000       0.03150000       0.02510000
C        0.59780000      -0.50610000       1.35990000
C       -0.62020000      -0.84360000       2.18090000
C       -1.73310000      -0.84200000       1.45210000
C       -1.47360000      -0.49630000       0.00880000
C        0.76780000      -0.41020000      -1.14950000
N        1.40160000      -0.73470000      -2.06020000
H        0.78450000       1.81470000       0.07680000
H        1.22850000      -1.38750000       1.18980000
H        1.23740000       0.26030000       1.81330000
H       -0.55700000      -1.08050000       3.23640000
H       -2.72530000      -1.08010000       1.81670000
H       -2.12530000       0.28850000      -0.38660000
H       -1.58020000      -1.37040000      -0.64430000
