18
Properties=species:S:1:pos:R:3 gdb_124601=T pbc="F F F"
C        0.00940000       1.52610000      -0.00570000
C        0.03230000      -0.00410000      -0.05810000
C       -1.36750000      -0.61730000       0.03850000
N        0.70710000      -0.46260000      -1.27650000
N        0.25260000      -0.19420000      -2.48670000
C        1.13070000      -0.77660000      -3.30900000
C        2.11090000      -1.39240000      -2.51800000
O        3.18210000      -2.09110000      -2.93800000
N        1.83330000      -1.18770000      -1.23330000
H        1.02280000       1.93360000      -0.05540000
H       -0.56680000       1.92790000      -0.84310000
H       -0.45270000       1.86060000       0.92770000
H        0.66100000      -0.39140000       0.74720000
H       -1.98830000      -0.28430000      -0.79740000
H       -1.31750000      -1.70940000       0.01930000
H       -1.84620000      -0.30910000       0.97260000
H        1.02820000      -0.73210000      -4.38020000
H        3.66240000      -2.38470000      -2.15420000
