19
Properties=species:S:1:pos:R:3 gdb_52621=T pbc="F F F"
C       -0.02100000       1.47820000       0.07460000
C       -0.01010000       0.02270000       0.03360000
C       -0.00850000      -1.18200000      -0.00390000
C        0.02150000      -2.65380000      -0.08030000
C       -1.40210000      -3.22320000       0.04910000
N        0.60220000      -3.15160000      -1.33910000
C        0.92320000      -3.16670000       1.08360000
C        0.99840000      -4.62380000       1.16460000
N        1.05520000      -5.77360000       1.26270000
H        0.62880000       1.85790000       0.87060000
H        0.32970000       1.90530000      -0.87130000
H       -1.03010000       1.86260000       0.25850000
H       -2.03350000      -2.83850000      -0.75690000
H       -1.37270000      -4.31350000      -0.01450000
H       -1.85340000      -2.92720000       0.99930000
H       -0.01130000      -2.90100000      -2.10970000
H        1.48340000      -2.67700000      -1.51860000
H        1.93480000      -2.76680000       0.95580000
H        0.54590000      -2.77650000       2.03390000
