17
Properties=species:S:1:pos:R:3 gdb_89814=T pbc="F F F"
O        0.00490000       1.42630000      -0.02240000
C        0.01460000       0.01530000      -0.07820000
C        0.82100000      -0.66740000       1.06230000
C        0.10660000      -1.98960000       1.32010000
C        0.74330000      -3.31120000       1.24240000
O        0.39510000      -2.72930000       2.50220000
C       -1.32110000      -1.78410000       0.90320000
O       -1.87060000      -0.54270000       1.37810000
C       -1.37280000      -0.60470000       0.03210000
H       -0.46620000       1.67050000       0.78360000
H        0.44260000      -0.23640000      -1.05510000
H        1.87670000      -0.79060000       0.81550000
H        0.75680000      -0.04950000       1.96270000
H        0.16080000      -4.18640000       0.95520000
H        1.81020000      -3.37510000       1.03230000
H       -2.01660000      -2.61630000       0.84340000
H       -2.11200000      -0.46600000      -0.75210000
