17
Properties=species:S:1:pos:R:3 gdb_2946=T pbc="F F F"
C       -0.03370000       1.54530000       0.01500000
C       -0.15650000       0.02010000       0.03820000
C        0.61670000      -0.60730000       1.18190000
O        0.10430000      -0.17420000       2.43560000
C        0.17300000      -1.27090000       3.34120000
C        0.74880000      -2.42150000       2.49100000
O        0.47790000      -2.00870000       1.16250000
H        1.00970000       1.85910000      -0.10110000
H       -0.60240000       1.96880000      -0.81750000
H       -0.41250000       1.97790000       0.94480000
H       -1.20300000      -0.28560000       0.14170000
H        0.22090000      -0.41260000      -0.89510000
H        1.69100000      -0.34000000       1.12530000
H        0.81350000      -1.02580000       4.19700000
H       -0.83520000      -1.49240000       3.71060000
H        1.83170000      -2.53160000       2.65420000
H        0.26490000      -3.38510000       2.66390000
