19
Properties=species:S:1:pos:R:3 gdb_80989=T pbc="F F F"
C        0.01940000       1.51620000       0.03220000
C        0.03130000       0.00650000       0.01150000
C        0.95680000      -0.81120000      -0.94920000
C        0.72560000      -1.96000000       0.08830000
C        0.68770000      -0.80890000       1.16650000
O        1.94030000      -0.26900000       1.51000000
C       -0.76350000      -2.19190000      -0.08220000
O       -1.37590000      -3.22480000      -0.13480000
C       -1.30600000      -0.74720000      -0.14680000
H        1.02120000       1.90700000       0.23070000
H       -0.32330000       1.91930000      -0.92720000
H       -0.65230000       1.89580000       0.81050000
H        0.61850000      -0.97460000      -1.97600000
H        1.98610000      -0.45660000      -0.93080000
H        1.36570000      -2.83580000       0.17800000
H        0.07570000      -0.99040000       2.06170000
H        2.38960000      -0.88990000       2.09200000
H       -2.02300000      -0.56170000       0.66060000
H       -1.80670000      -0.54580000      -1.09950000
