23
Properties=species:S:1:pos:R:3 gdb_90116=T pbc="F F F"
C       -0.25130000       1.60960000      -0.14080000
C       -0.08260000       0.09660000      -0.04740000
C        0.92520000      -0.64330000      -1.05720000
C        1.92010000      -0.76750000       0.13750000
C        2.56270000      -1.70480000       1.22490000
C        1.88480000      -0.61770000       2.19580000
C        2.73000000       0.62600000       1.90300000
C        2.80280000       0.49420000       0.35410000
C        0.75900000      -0.62630000       1.09020000
H        0.68070000       2.16960000      -0.05320000
H       -0.71020000       1.88040000      -1.09890000
H       -0.91960000       1.96110000       0.65300000
H       -1.08590000      -0.33860000      -0.09580000
H        0.50190000      -1.59300000      -1.39390000
H        1.26680000      -0.07840000      -1.93040000
H        2.09420000      -2.68690000       1.30510000
H        3.65420000      -1.79410000       1.27220000
H        1.67470000      -0.85670000       3.24060000
H        2.23960000       1.54830000       2.22790000
H        3.71160000       0.58230000       2.38430000
H        3.82080000       0.30280000      -0.00180000
H        2.44750000       1.37890000      -0.17230000
H        0.26800000      -1.60120000       1.18700000
