16
Properties=species:S:1:pos:R:3 gdb_69212=T pbc="F F F"
C       -0.01030000       1.53270000       0.00180000
C        0.03390000       0.02840000      -0.00650000
C        0.31570000      -0.78610000       1.21050000
N        1.32430000      -0.68430000       0.13420000
C        1.27610000      -1.81330000      -0.74630000
N        2.22530000      -2.64290000      -0.82810000
N        0.05230000      -1.77360000      -1.42890000
C       -0.74730000      -0.69510000      -1.07810000
O       -1.80650000      -0.39510000      -1.56950000
H        0.60480000       1.93180000       0.81110000
H        0.35670000       1.93890000      -0.94530000
H       -1.04200000       1.86880000       0.13770000
H        0.58780000      -0.27210000       2.12700000
H       -0.19230000      -1.73710000       1.34410000
H        2.01920000      -3.38600000      -1.49520000
H       -0.23660000      -2.45580000      -2.11340000
