18
Properties=species:S:1:pos:R:3 gdb_85243=T pbc="F F F"
C        0.18110000       1.53840000      -0.07610000
C       -0.02270000       0.04140000       0.08340000
O        0.48180000      -0.63860000      -1.09430000
C        1.25360000      -1.71310000      -0.78150000
O        1.63510000      -2.50250000      -1.59690000
C        1.49660000      -1.73340000       0.70940000
C        1.80800000      -3.04190000       1.37520000
N        2.17520000      -0.46250000       1.10240000
C        0.71650000      -0.59860000       1.24870000
H        1.24850000       1.76750000      -0.09970000
H       -0.28240000       1.88910000      -1.00150000
H       -0.27890000       2.07010000       0.76320000
H       -1.09160000      -0.19690000       0.15290000
H        2.72870000      -3.46500000       0.96290000
H        1.93270000      -2.91270000       2.45480000
H        1.00720000      -3.76820000       1.20630000
H        2.61620000      -0.61550000       2.00830000
H        0.26160000      -0.61520000       2.23300000
