19
Properties=species:S:1:pos:R:3 gdb_73917=T pbc="F F F"
C       -0.04540000       1.50670000       0.12520000
C       -0.01770000       0.01580000       0.00990000
C        0.00520000      -0.75390000      -1.10530000
C       -0.03950000      -2.23590000      -0.77770000
C        0.04590000      -2.27450000       0.74510000
C        1.26600000      -1.68490000       1.38760000
C        0.01410000      -0.83100000       1.23320000
C        0.05340000      -0.28850000      -2.48480000
O        0.08750000      -1.02990000      -3.44780000
H        0.84210000       1.86510000       0.66130000
H       -0.09330000       2.01400000      -0.83920000
H       -0.91220000       1.82220000       0.71930000
H       -0.97110000      -2.68300000      -1.14520000
H        0.77390000      -2.78460000      -1.26510000
H       -0.49000000      -3.04670000       1.28370000
H        1.50850000      -2.01520000       2.39210000
H        2.12470000      -1.44210000       0.76940000
H       -0.51080000      -0.50970000       2.12650000
H        0.05090000       0.81400000      -2.62570000
