25
Properties=species:S:1:pos:R:3 gdb_60533=T pbc="F F F"
C       -0.06600000       1.89760000      -0.38490000
C       -0.13850000       0.37180000      -0.19460000
C       -1.60130000      -0.02870000      -0.10690000
C       -2.12500000      -0.95000000       0.90940000
O       -2.30980000       0.45890000       1.03980000
C        0.66760000      -0.45980000      -1.24700000
C        2.16380000      -0.10220000      -1.14470000
C        0.51630000      -1.96390000      -0.94280000
C        0.19380000      -0.19520000      -2.69040000
H        0.96140000       2.26770000      -0.35060000
H       -0.50630000       2.20980000      -1.33770000
H       -0.62750000       2.38810000       0.41470000
H        0.30050000       0.14300000       0.78650000
H       -2.17380000       0.06870000      -1.03120000
H       -3.02870000      -1.52620000       0.71210000
H       -1.44040000      -1.39940000       1.62780000
H        2.53920000      -0.25420000      -0.12650000
H        2.75320000      -0.73800000      -1.81420000
H        2.36020000       0.93650000      -1.42460000
H       -0.51610000      -2.30430000      -1.06260000
H        1.14090000      -2.55560000      -1.62070000
H        0.82940000      -2.19560000       0.08160000
H        0.31940000       0.85320000      -2.97650000
H        0.77940000      -0.79720000      -3.39370000
H       -0.85820000      -0.46060000      -2.83600000
