17
Properties=species:S:1:pos:R:3 gdb_77224=T pbc="F F F"
C        0.03030000       1.80940000      -0.15800000
N        0.00310000       0.37200000       0.04200000
C       -0.99690000      -0.32540000       0.85730000
C        0.09960000      -1.39080000       1.20040000
C        1.11730000      -0.32780000       0.69320000
C        2.18700000      -0.77510000      -0.20200000
N        3.03330000      -1.13350000      -0.90260000
C       -1.48770000       0.34820000       2.12550000
O       -0.93250000       1.26620000       2.67580000
H        0.83470000       2.04710000      -0.86170000
H       -0.91290000       2.12100000      -0.61820000
H        0.17510000       2.38330000       0.76610000
H       -1.86370000      -0.69450000       0.29370000
H        0.19900000      -1.69030000       2.24310000
H        0.04500000      -2.26690000       0.55630000
H        1.56850000       0.23030000       1.52720000
H       -2.41670000      -0.10170000       2.54880000
