14
Properties=species:S:1:pos:R:3 gdb_133099=T pbc="F F F"
O        0.01980000       1.42420000       0.00790000
C       -0.00460000       0.01270000       0.00370000
C       -1.43160000      -0.47010000       0.01420000
N       -1.59420000      -1.80350000       0.01250000
C       -2.84690000      -2.23960000       0.02170000
N       -3.96050000      -1.49740000       0.03240000
C       -3.75930000      -0.19890000       0.03370000
F       -4.84060000       0.56580000       0.04420000
C       -2.50790000       0.40580000       0.02490000
H        0.93620000       1.71300000       0.00030000
H        0.48840000      -0.41090000      -0.88520000
H        0.50350000      -0.41650000       0.88130000
H       -2.99100000      -3.31700000       0.02040000
H       -2.37950000       1.47800000       0.02630000
