12
Properties=species:S:1:pos:R:3 gdb_40=T pbc="F F F"
C       -0.00380000       1.52200000       0.01030000
C       -0.03590000      -0.00780000       0.00230000
C       -1.45220000      -0.56650000       0.01280000
O       -1.36800000      -1.98390000       0.00450000
H        1.02480000       1.89410000       0.00240000
H       -0.51290000       1.93760000      -0.86650000
H       -0.49580000       1.92800000       0.90120000
H        0.48140000      -0.39530000      -0.88320000
H        0.49830000      -0.40490000       0.87330000
H       -1.98730000      -0.20400000       0.90670000
H       -2.00430000      -0.19460000      -0.86670000
H       -2.26170000      -2.33820000       0.01030000
