19
Properties=species:S:1:pos:R:3 gdb_38565=T pbc="F F F"
C       -0.05310000       1.49300000      -0.23240000
C        1.35110000       2.00640000       0.06150000
C        2.12720000       1.67210000       1.32530000
C        1.58890000       0.78550000       2.44160000
C        1.03750000      -0.47440000       1.75570000
O       -0.35530000      -0.33690000       1.40380000
C       -0.01790000      -0.01970000       0.03700000
C        1.48020000      -0.40010000       0.26000000
C        2.33150000       0.84930000       0.06780000
H       -0.84160000       1.95970000       0.36710000
H       -0.28070000       1.68630000      -1.28780000
H        1.63990000       2.94170000      -0.40810000
H        2.87400000       2.40990000       1.60170000
H        2.41900000       0.52310000       3.10880000
H        0.80730000       1.24930000       3.05240000
H        1.20880000      -1.39350000       2.32420000
H       -0.62470000      -0.60350000      -0.66170000
H        1.84450000      -1.31370000      -0.20540000
H        3.25250000       0.83530000      -0.50150000
