23
Properties=species:S:1:pos:R:3 gdb_1570=T pbc="F F F"
C       -0.05020000       1.61830000      -0.09010000
C        0.01820000       0.09280000       0.03080000
C       -1.36880000      -0.56010000       0.08040000
C       -1.37640000      -2.10080000       0.08650000
C       -0.72020000      -2.67240000       1.35220000
C       -2.81500000      -2.62240000      -0.09860000
C       -2.93460000      -4.13260000      -0.32780000
H        0.94940000       2.06290000      -0.12490000
H       -0.58120000       1.92000000      -1.00010000
H       -0.58090000       2.05950000       0.76110000
H        0.57900000      -0.31650000      -0.82050000
H        0.59190000      -0.16990000       0.92720000
H       -1.91010000      -0.19500000       0.96590000
H       -1.94590000      -0.21240000      -0.78760000
H       -0.78910000      -2.43850000      -0.78180000
H       -0.70060000      -3.76580000       1.33980000
H        0.31350000      -2.33270000       1.46180000
H       -1.27020000      -2.35960000       2.24870000
H       -3.41380000      -2.33580000       0.77740000
H       -3.26470000      -2.10080000      -0.95350000
H       -2.60010000      -4.71030000       0.53920000
H       -3.97320000      -4.41580000      -0.52620000
H       -2.33510000      -4.44980000      -1.18890000
