22
Properties=species:S:1:pos:R:3 gdb_109618=T pbc="F F F"
C       -1.16500000       2.20810000      -0.40770000
C       -0.90260000       0.95660000      -1.24360000
N       -1.64690000      -0.17490000      -0.69960000
C       -1.36290000      -1.54370000      -1.10910000
C       -0.31340000      -1.92080000      -2.13320000
C       -1.03310000      -1.08500000       0.29420000
C        0.40950000      -0.93690000       0.75970000
C       -1.92720000      -1.47410000       1.36360000
C       -2.64110000      -1.81970000       2.26770000
H       -0.66670000       3.07750000      -0.84810000
H       -2.23800000       2.40890000      -0.34770000
H       -0.78980000       2.08450000       0.61320000
H       -1.26880000       1.11110000      -2.26600000
H        0.18190000       0.79050000      -1.32310000
H       -2.27040000      -2.14060000      -1.20230000
H        0.61450000      -1.35470000      -2.04160000
H       -0.06950000      -2.98450000      -2.04310000
H       -0.70230000      -1.75850000      -3.14470000
H        1.09940000      -0.70530000      -0.05180000
H        0.48760000      -0.14650000       1.51250000
H        0.73940000      -1.87000000       1.22570000
H       -3.28550000      -2.11520000       3.05800000
