18
Properties=species:S:1:pos:R:3 gdb_81873=T pbc="F F F"
C       -0.07730000       1.41620000       0.00380000
N       -0.05510000      -0.01590000       0.20040000
C       -1.20330000      -0.86080000       0.12340000
C       -1.34280000      -1.70330000      -1.13890000
C       -0.62210000      -2.24340000       0.07470000
C       -1.07920000      -3.43990000       0.85460000
O        0.78930000      -2.08170000       0.07950000
C        1.11110000      -0.74430000       0.11350000
O        2.23840000      -0.33360000       0.06050000
H        0.95270000       1.77150000       0.06100000
H       -0.49600000       1.68340000      -0.97520000
H       -0.67150000       1.90660000       0.78250000
H       -2.06280000      -0.58760000       0.72680000
H       -2.31970000      -2.12600000      -1.34820000
H       -0.76040000      -1.42020000      -2.00920000
H       -2.17130000      -3.48940000       0.87020000
H       -0.70220000      -4.36150000       0.40020000
H       -0.71620000      -3.39180000       1.88560000
