19
Properties=species:S:1:pos:R:3 gdb_81140=T pbc="F F F"
C       -0.18240000       1.53870000       0.02540000
C        0.00370000       0.03030000      -0.00620000
C        0.80910000      -0.59910000      -1.19500000
C        2.10840000      -0.22950000      -0.41930000
C        1.19790000      -0.59440000       0.79610000
N        0.90880000      -2.04080000       0.63000000
C        0.67670000      -2.09250000      -0.85440000
C        1.51310000      -0.19460000       2.15100000
N        1.77530000       0.16050000       3.21950000
H        0.72280000       2.09500000      -0.23060000
H       -0.96110000       1.83100000      -0.68660000
H       -0.50250000       1.86530000       1.02010000
H       -0.94260000      -0.46920000       0.22140000
H        0.64370000      -0.29560000      -2.22790000
H        2.99480000      -0.85240000      -0.56630000
H        2.37450000       0.82440000      -0.47620000
H        1.73280000      -2.58080000       0.87690000
H       -0.31880000      -2.49110000      -1.07380000
H        1.41920000      -2.71170000      -1.36820000
