19
Properties=species:S:1:pos:R:3 gdb_1977=T pbc="F F F"
C        0.15500000       1.33880000       0.13010000
O       -0.30720000       0.06660000      -0.26130000
C        0.50250000      -0.54140000      -1.23160000
C        1.86840000      -1.15390000      -0.80650000
C        1.53210000      -2.38100000      -1.70360000
C        1.90740000      -3.77220000      -1.21760000
C        0.03860000      -1.94520000      -1.65980000
H        1.15490000       1.29230000       0.58770000
H        0.20060000       2.03560000      -0.72230000
H       -0.55010000       1.73040000       0.86740000
H        0.62730000       0.12860000      -2.09790000
H        2.78510000      -0.59610000      -1.01300000
H        1.83990000      -1.42390000       0.25470000
H        1.93390000      -2.22090000      -2.71050000
H        1.51540000      -3.95470000      -0.21060000
H        1.50280000      -4.54750000      -1.87820000
H        2.99500000      -3.90170000      -1.18050000
H       -0.48770000      -2.42470000      -0.82830000
H       -0.56390000      -2.03680000      -2.56630000
