22
Properties=species:S:1:pos:R:3 gdb_95877=T pbc="F F F"
C       -0.06860000       1.53040000       0.03220000
C        0.00310000       0.00210000       0.00790000
C        0.62990000      -0.53150000      -1.29230000
C        0.74970000      -2.06200000      -1.27760000
C        1.51460000      -2.54110000      -0.03860000
N        0.92730000      -1.97860000       1.17150000
C        0.79170000      -0.53370000       1.21650000
C        0.50560000      -2.78600000       2.18330000
O        0.58020000      -3.99770000       2.20180000
H        0.93240000       1.97380000      -0.02650000
H       -0.64850000       1.90900000      -0.81530000
H       -0.54140000       1.89560000       0.95030000
H       -1.01680000      -0.40100000       0.08320000
H        0.03870000      -0.20180000      -2.15410000
H        1.62950000      -0.08790000      -1.41300000
H       -0.25080000      -2.51170000      -1.27400000
H        1.25910000      -2.41700000      -2.18000000
H        1.49000000      -3.62620000       0.06840000
H        2.56720000      -2.22700000      -0.10680000
H        1.79100000      -0.06870000       1.22730000
H        0.29810000      -0.26020000       2.15490000
H        0.07020000      -2.19900000       3.01710000
