20
Properties=species:S:1:pos:R:3 gdb_70665=T pbc="F F F"
C       -0.41800000       1.32830000       0.03830000
C        0.06820000      -0.09750000       0.05650000
N       -0.56520000      -1.09390000       0.95640000
C        0.84740000      -0.70110000       1.16730000
C        1.83160000      -1.71090000       0.61470000
C        1.28580000      -2.02820000      -0.79850000
C        0.52930000      -0.74940000      -1.25520000
C       -0.63410000      -1.06840000      -2.16540000
O       -0.79450000      -0.61620000      -3.27120000
H        0.32450000       1.99060000      -0.41990000
H       -1.34500000       1.42730000      -0.53770000
H       -0.61150000       1.68980000       1.05360000
H       -1.15350000      -0.60390000       1.62660000
H        1.09830000      -0.11970000       2.04950000
H        2.82540000      -1.25080000       0.56080000
H        1.91560000      -2.61030000       1.23250000
H        2.07010000      -2.30870000      -1.50480000
H        0.58130000      -2.86210000      -0.73890000
H        1.19250000      -0.05730000      -1.78490000
H       -1.36970000      -1.77260000      -1.71510000
