18
Properties=species:S:1:pos:R:3 gdb_75787=T pbc="F F F"
C       -0.51090000       1.17310000      -0.17430000
C        0.08340000      -0.22770000      -0.11060000
C        1.40500000      -0.45460000      -0.81640000
N        1.82330000      -0.27570000      -1.98300000
O        2.06590000      -0.92070000       0.31060000
C        0.86540000      -0.70810000       1.14290000
C        1.14450000       0.25900000       2.27980000
C        0.43560000      -2.06130000       1.68890000
O       -0.69380000      -2.47270000       1.66620000
H        0.21460000       1.94210000       0.10430000
H       -0.83600000       1.38220000      -1.19690000
H       -1.38030000       1.25930000       0.48430000
H       -0.66770000      -0.96830000      -0.39830000
H        2.80670000      -0.53550000      -2.07540000
H        1.57740000       1.18640000       1.89770000
H        0.21980000       0.49340000       2.81560000
H        1.85380000      -0.17960000       2.98920000
H        1.27320000      -2.65050000       2.12440000
