12
Properties=species:S:1:pos:R:3 gdb_21537=T pbc="F F F"
N        0.03410000       1.43530000       0.16480000
C        0.01640000       0.05650000       0.04670000
C       -1.09840000      -0.78210000       0.01960000
N       -0.60380000      -2.06620000      -0.02520000
N        0.72220000      -2.10560000      -0.03560000
C        1.11550000      -0.83270000       0.00960000
C       -2.46900000      -0.46890000       0.02500000
N       -3.59500000      -0.18770000       0.02300000
H        0.84190000       1.88240000      -0.24320000
H       -0.82200000       1.89600000      -0.11060000
H       -1.13480000      -2.92040000      -0.05430000
H        2.16740000      -0.58950000       0.01660000
