16
Properties=species:S:1:pos:R:3 gdb_34684=T pbc="F F F"
C       -0.52550000      -1.23370000      -0.20760000
C       -0.20750000      -0.09170000      -0.00430000
C       -0.00220000       1.32790000       0.10940000
C        0.49670000       2.10580000       1.26510000
C        1.70840000       1.49780000       1.99100000
O        1.77970000       0.06200000       2.07160000
C        2.60860000       0.00100000       0.87340000
C        2.44910000       1.51340000       0.65730000
N        1.25210000       2.11660000      -0.07100000
H       -0.77390000      -2.25750000      -0.34230000
H       -0.78490000       1.86780000      -0.42440000
H       -0.03800000       2.98500000       1.61510000
H        2.02650000       2.00360000       2.90510000
H        3.63880000      -0.27800000       1.12930000
H        2.21300000      -0.68160000       0.12080000
H        3.33250000       2.11090000       0.44190000
