18
Properties=species:S:1:pos:R:3 gdb_121595=T pbc="F F F"
C       -0.05280000       1.44300000       0.07310000
C        0.03180000      -0.08170000      -0.04100000
C        0.74950000      -0.51200000      -1.30830000
O        0.78040000      -1.95660000      -1.32870000
C        1.37610000      -2.51050000      -2.37440000
O        1.88560000      -1.91200000      -3.29430000
C        1.34880000      -4.05500000      -2.28900000
N        1.96310000      -4.59530000      -3.36750000
O        0.84180000      -4.66310000      -1.37360000
H        0.94300000       1.89870000       0.09500000
H       -0.59870000       1.87800000      -0.77120000
H       -0.57190000       1.73510000       0.98990000
H        0.55940000      -0.49940000       0.82360000
H       -0.97230000      -0.52000000      -0.03690000
H        0.23890000      -0.15940000      -2.21080000
H        1.77860000      -0.13870000      -1.34580000
H        2.34990000      -3.98660000      -4.06970000
H        2.02510000      -5.59520000      -3.45420000
