13
Properties=species:S:1:pos:R:3 gdb_88=T pbc="F F F"
C       -0.03710000       1.53220000       0.01330000
C        0.01340000       0.02120000       0.01920000
O       -1.17480000      -0.59740000      -0.40930000
C        1.30740000      -0.69900000      -0.27390000
C        0.70840000      -0.71370000       1.12230000
H        0.89030000       1.96240000       0.40280000
H       -0.17850000       1.91560000      -1.00520000
H       -0.87010000       1.88960000       0.62730000
H       -1.28350000      -0.40230000      -1.34690000
H        1.23970000      -1.61640000      -0.84780000
H        2.20540000      -0.11520000      -0.44740000
H        1.19540000      -0.13890000       1.90240000
H        0.24740000      -1.63670000       1.45380000
