22
Properties=species:S:1:pos:R:3 gdb_112669=T pbc="F F F"
C       -0.00280000       1.54830000       0.11500000
C       -0.03890000       0.02120000       0.00440000
C        0.62130000      -0.51780000      -1.26620000
C        0.67640000      -2.06310000      -1.32180000
N        0.65370000      -2.36310000      -2.74020000
C        0.87020000      -3.69150000      -3.25970000
C        0.20390000      -1.32890000      -3.52160000
O        0.03780000      -1.37190000      -4.72350000
C       -0.06790000      -0.14590000      -2.59160000
H        1.02740000       1.92130000       0.10350000
H       -0.53620000       2.02340000      -0.71480000
H       -0.46860000       1.88680000       1.04530000
H        0.45980000      -0.41800000       0.87870000
H       -1.07990000      -0.32790000       0.04040000
H        1.65460000      -0.15030000      -1.30660000
H        1.58160000      -2.46400000      -0.84990000
H       -0.18710000      -2.51510000      -0.80590000
H        0.13790000      -4.40490000      -2.85780000
H        0.76250000      -3.64260000      -4.34470000
H        1.87420000      -4.05440000      -3.00880000
H       -1.15590000      -0.05810000      -2.47160000
H        0.28390000       0.78270000      -3.04380000
