20
Properties=species:S:1:pos:R:3 gdb_85313=T pbc="F F F"
C        0.55360000       1.47970000      -0.32020000
C       -0.02340000       0.10170000       0.01950000
C        0.24820000      -0.92400000      -1.11280000
C        1.60030000      -1.54770000      -0.72220000
O        2.49420000      -1.91290000      -1.45130000
N        1.61650000      -1.55680000       0.65600000
C        2.73520000      -1.10490000       1.50970000
C        1.81160000       0.01200000       2.08370000
C        0.65210000      -0.60290000       1.23540000
H        1.62210000       1.42730000      -0.55790000
H        0.04600000       1.89480000      -1.19640000
H        0.42530000       2.18600000       0.50600000
H       -1.09610000       0.21000000       0.20250000
H       -0.51900000      -1.70590000      -1.14070000
H        0.31320000      -0.48110000      -2.10800000
H        3.04980000      -1.85950000       2.23580000
H        3.60460000      -0.78280000       0.92980000
H        1.65760000      -0.01040000       3.16350000
H        2.10590000       1.01980000       1.78880000
H       -0.10230000      -1.10010000       1.85660000
