17
Properties=species:S:1:pos:R:3 gdb_47309=T pbc="F F F"
O        0.09740000       0.09310000      -0.72550000
C        0.01490000       1.13040000      -0.11370000
C       -1.35290000       1.75670000       0.20570000
C       -1.58860000       2.30170000       1.63620000
C       -1.00070000       3.71380000       1.88000000
C        0.32050000       3.81540000       1.15870000
O        0.65620000       4.66280000       0.38230000
O        1.08500000       2.70070000       1.42820000
C        1.30090000       1.86750000       0.29180000
H       -1.51150000       2.56530000      -0.52400000
H       -2.08160000       0.97830000      -0.03280000
H       -2.66750000       2.33940000       1.81590000
H       -1.17320000       1.60140000       2.36560000
H       -1.65400000       4.50430000       1.50330000
H       -0.85450000       3.87760000       2.95300000
H        2.06220000       1.13410000       0.55960000
H        1.66260000       2.45590000      -0.56170000
