12
Properties=species:S:1:pos:R:3 gdb_21502=T pbc="F F F"
N       -0.07970000       1.32800000       0.00770000
C        0.04630000      -0.02510000       0.00140000
O        1.11210000      -0.61420000      -0.00980000
C       -1.24150000      -0.76730000       0.00920000
N       -2.44300000      -0.17940000       0.02130000
N       -3.27820000      -1.20320000       0.02410000
N       -2.73520000      -2.41700000       0.01510000
C       -1.42920000      -2.16130000       0.00550000
H        0.75470000       1.88930000       0.00230000
H       -0.98510000       1.76560000       0.01620000
H       -4.27760000      -1.07260000       0.03270000
H       -0.69220000      -2.94640000      -0.00350000
