20
Properties=species:S:1:pos:R:3 gdb_90956=T pbc="F F F"
C        0.03010000       1.56470000      -0.06470000
C        0.02130000       0.05720000      -0.02340000
C        0.56630000      -0.96140000      -1.03910000
N       -0.00380000      -1.89440000       0.03130000
C        0.58720000      -0.90590000       1.06500000
C       -0.32480000      -0.97090000       2.28040000
C       -1.69520000      -0.93780000       1.54680000
O       -2.45990000       0.23940000       1.77100000
C       -1.19070000      -0.91260000       0.11160000
H        1.05440000       1.95410000      -0.06900000
H       -0.47170000       1.93260000      -0.96640000
H       -0.49750000       1.97560000       0.80050000
H        0.06240000      -1.04720000      -2.00720000
H        1.65150000      -1.04690000      -1.15780000
H        1.66710000      -0.98830000       1.20880000
H       -0.16890000      -1.88910000       2.85430000
H       -0.20890000      -0.11180000       2.94820000
H       -2.29450000      -1.83570000       1.74830000
H       -2.79260000       0.21260000       2.67320000
H       -1.92480000      -0.99840000      -0.69180000
