16
Properties=species:S:1:pos:R:3 gdb_12393=T pbc="F F F"
C        0.14350000       1.55910000      -0.08850000
C        0.11490000       0.04360000       0.00600000
O        0.69710000      -0.50210000      -1.17720000
C        0.85770000      -1.89010000      -1.11020000
O        1.79450000      -2.26610000      -0.13680000
C        1.36620000      -1.91070000       1.16590000
C        0.80890000      -0.49030000       1.26690000
O        0.84060000       0.12730000       2.30320000
H        1.17270000       1.90930000      -0.20200000
H       -0.43660000       1.89080000      -0.95260000
H       -0.27390000       1.99460000       0.82070000
H       -0.93340000      -0.30640000       0.08220000
H       -0.11610000      -2.37960000      -0.91130000
H        1.25350000      -2.21480000      -2.07380000
H        0.56930000      -2.59290000       1.51580000
H        2.21540000      -2.01210000       1.84440000
