16
Properties=species:S:1:pos:R:3 gdb_250=T pbc="F F F"
C        0.03240000       1.55980000       0.01740000
C        0.01650000       0.02740000       0.03050000
C        0.74010000      -0.52950000       1.26180000
C       -1.42920000      -0.52600000      -0.02980000
C       -2.15050000      -0.16300000      -1.24370000
C       -2.72620000       0.13930000      -2.25520000
H        1.05900000       1.93990000       0.00960000
H       -0.48450000       1.95340000      -0.86200000
H       -0.46440000       1.96240000       0.90870000
H        0.53650000      -0.32920000      -0.86800000
H        0.24280000      -0.21190000       2.18630000
H        0.76350000      -1.62450000       1.25420000
H        1.77380000      -0.17200000       1.30340000
H       -1.39960000      -1.62000000       0.05630000
H       -1.98580000      -0.16760000       0.84750000
H       -3.24450000       0.40190000      -3.14370000
