14
Properties=species:S:1:pos:R:3 gdb_28843=T pbc="F F F"
N        0.07150000       1.31470000       0.26620000
C       -0.02500000      -0.01740000      -0.01240000
N       -1.19350000      -0.57770000       0.02090000
C       -1.43790000      -1.90260000      -0.22340000
C       -0.61160000      -2.97060000      -0.10940000
C        0.79420000      -2.86880000       0.30140000
O        1.34050000      -3.62240000       1.07460000
N        1.54810000      -1.88220000      -0.37740000
C        1.22000000      -0.65890000      -0.49010000
H        0.96570000       1.71250000       0.49870000
H       -0.74660000       1.75570000       0.65700000
H       -2.48490000      -2.09710000      -0.44930000
H       -1.01890000      -3.97250000      -0.19760000
H        1.90380000      -0.00130000      -1.03700000
