19
Properties=species:S:1:pos:R:3 gdb_117247=T pbc="F F F"
O       -0.12850000       1.41620000       0.06560000
C        0.03300000       0.00620000       0.02090000
C       -1.36220000      -0.59990000       0.00070000
C       -1.36730000      -2.11280000      -0.05680000
O       -0.32100000      -2.75240000      -0.09560000
C       -2.68020000      -2.78480000      -0.02850000
C       -2.82520000      -4.11450000      -0.78500000
C       -2.72760000      -4.16050000       0.69270000
O       -1.62210000      -4.65050000       1.35200000
H        0.74570000       1.81580000       0.08370000
H        0.58750000      -0.31360000      -0.87270000
H        0.58590000      -0.36980000       0.89340000
H       -1.92510000      -0.27850000       0.88710000
H       -1.92750000      -0.21120000      -0.85700000
H       -3.55360000      -2.14660000       0.04160000
H       -3.77990000      -4.29700000      -1.26560000
H       -1.94980000      -4.42300000      -1.34690000
H       -3.63270000      -4.34570000       1.26220000
H       -0.83980000      -4.29320000       0.89560000
