15
Properties=species:S:1:pos:R:3 gdb_127295=T pbc="F F F"
C        0.00190000       1.37810000       0.07440000
N       -0.13300000      -0.05620000      -0.01700000
C       -0.11060000      -0.81140000      -1.17440000
C        0.02090000      -2.10150000      -0.74050000
O        0.01350000      -3.41020000      -1.14340000
C        0.34530000      -4.12240000       0.06850000
O        0.12210000      -3.26310000       1.20360000
C        0.08070000      -2.02080000       0.64490000
N        0.00600000      -0.80450000       1.12690000
H        1.05200000       1.69350000       0.11460000
H       -0.47440000       1.83860000      -0.79460000
H       -0.50190000       1.71710000       0.98130000
H       -0.20120000      -0.35490000      -2.14530000
H       -0.29780000      -5.00060000       0.15320000
H        1.40740000      -4.40390000       0.03800000
