14
Properties=species:S:1:pos:R:3 gdb_448=T pbc="F F F"
O        0.00450000       0.01890000      -0.17510000
C       -0.01310000       1.21120000      -0.01340000
C       -1.26880000       2.08150000       0.13520000
C       -0.75110000       3.44700000       0.61160000
C        0.65700000       3.55320000      -0.01710000
C        1.21610000       2.12570000       0.08020000
H       -1.72720000       2.15810000      -0.86020000
H       -2.00270000       1.60240000       0.78710000
H       -1.40250000       4.27800000       0.33040000
H       -0.66900000       3.45390000       1.70500000
H        0.57050000       3.84880000      -1.06950000
H        1.28510000       4.29780000       0.47790000
H        1.67610000       1.94760000       1.06180000
H        1.96100000       1.85920000      -0.67300000
