13
Properties=species:S:1:pos:R:3 gdb_132372=T pbc="F F F"
C       -0.06550000       1.48850000      -0.01230000
C        0.00530000      -0.00710000       0.01420000
N        0.09900000      -0.63520000      -1.17170000
C        0.15710000      -1.94610000      -1.07210000
F        0.24960000      -2.61230000      -2.20020000
N        0.13420000      -2.68210000       0.02370000
C        0.03920000      -1.94550000       1.13540000
O        0.00860000      -2.59280000       2.29550000
N       -0.02840000      -0.61760000       1.19960000
H        0.82270000       1.89180000      -0.50840000
H       -0.92940000       1.80720000      -0.60390000
H       -0.13970000       1.88630000       0.99910000
H        0.06520000      -3.53750000       2.09180000
