21
Properties=species:S:1:pos:R:3 gdb_89512=T pbc="F F F"
C       -0.24040000       1.60400000       0.37270000
C        0.12700000       0.17150000       0.05030000
C       -1.04950000      -0.85680000      -0.01290000
C       -0.42990000      -1.63930000       1.17670000
O       -0.25490000      -3.03220000       1.05390000
C        0.82830000      -0.71040000       1.13970000
C        2.07240000      -1.25930000       0.43160000
C        1.78040000      -0.99580000      -1.05810000
O        0.96970000       0.16780000      -1.09800000
H        0.65930000       2.19790000       0.56010000
H       -0.78120000       2.05750000      -0.46430000
H       -0.88130000       1.65050000       1.25850000
H       -2.05200000      -0.45220000       0.14580000
H       -1.05480000      -1.42460000      -0.94890000
H       -0.99440000      -1.50380000       2.10280000
H        0.06490000      -3.22200000       0.16580000
H        1.06730000      -0.22890000       2.08970000
H        2.95710000      -0.69910000       0.74590000
H        2.24880000      -2.31670000       0.64900000
H        2.67520000      -0.80290000      -1.65600000
H        1.25800000      -1.85400000      -1.51630000
