21
Properties=species:S:1:pos:R:3 gdb_6275=T pbc="F F F"
C       -0.00300000       1.62520000      -0.06190000
C        0.04570000       0.11010000       0.17990000
C        0.65070000      -0.19980000       1.55670000
C       -1.35940000      -0.49230000       0.00410000
C       -1.45180000      -2.03430000       0.07560000
C       -2.90220000      -2.52810000      -0.09310000
C       -0.58310000      -2.65850000      -0.92950000
N        0.09510000      -3.14560000      -1.72930000
H        0.99580000       2.06660000       0.01230000
H       -0.40010000       1.85940000      -1.05510000
H       -0.64080000       2.12230000       0.67900000
H        0.69690000      -0.33250000      -0.58560000
H        0.78880000      -1.27320000       1.71860000
H        1.63320000       0.27100000       1.66130000
H        0.01250000       0.18410000       2.36210000
H       -2.02730000      -0.09090000       0.77790000
H       -1.77120000      -0.17130000      -0.96040000
H       -1.08850000      -2.36670000       1.05550000
H       -3.53100000      -2.09820000       0.69160000
H       -3.30550000      -2.22420000      -1.06320000
H       -2.95980000      -3.61720000      -0.02550000
