22
Properties=species:S:1:pos:R:3 gdb_96872=T pbc="F F F"
C        0.02340000       1.44060000      -0.01700000
N        0.22830000       0.00250000       0.05260000
C        0.46730000      -0.64130000      -1.00370000
O        0.53200000      -0.09360000      -2.25550000
C        0.96020000      -1.05810000      -3.23790000
C        2.38810000      -0.74700000      -3.67330000
C        0.77090000      -2.43890000      -2.57030000
C        0.72890000      -2.13820000      -1.05730000
C        1.99900000      -2.51570000      -0.28150000
H        0.44560000       1.90440000       0.88020000
H        0.46550000       1.91050000      -0.90360000
H       -1.05130000       1.66450000      -0.01700000
H        0.28840000      -0.93500000      -4.09340000
H        3.09100000      -0.87050000      -2.84350000
H        2.69120000      -1.41930000      -4.48260000
H        2.46160000       0.28260000      -4.03410000
H       -0.16920000      -2.88860000      -2.90020000
H        1.57620000      -3.12730000      -2.83850000
H       -0.11750000      -2.64460000      -0.58550000
H        2.88970000      -2.04920000      -0.71540000
H        1.91360000      -2.17840000       0.75430000
H        2.14860000      -3.60000000      -0.28840000
