19
Properties=species:S:1:pos:R:3 gdb_73140=T pbc="F F F"
O        0.29820000       1.39730000       0.02000000
C        0.00430000       0.02510000       0.02080000
C       -1.37020000      -0.31320000       0.61770000
O       -0.79180000      -1.39890000       1.38170000
C        0.55340000      -0.90290000       1.14600000
C        1.53000000      -1.91510000       0.54200000
C        1.33040000      -1.83650000      -0.97090000
C       -0.05200000      -2.11320000      -1.49080000
C        0.38680000      -0.68160000      -1.27750000
H        1.15070000       1.52450000      -0.41000000
H       -1.75160000       0.48520000       1.26630000
H       -2.15660000      -0.65570000      -0.06180000
H        0.93930000      -0.39050000       2.03520000
H        2.55540000      -1.62860000       0.80270000
H        1.35720000      -2.91760000       0.94800000
H        2.17810000      -2.05030000      -1.61290000
H       -0.14630000      -2.44110000      -2.52060000
H       -0.77720000      -2.54490000      -0.81010000
H        0.50770000      -0.05060000      -2.15220000
