22
Properties=species:S:1:pos:R:3 gdb_60288=T pbc="F F F"
C       -0.17310000       1.47290000       0.05060000
C        0.04060000      -0.03880000       0.01120000
C        0.86310000      -0.49360000      -1.18670000
O        0.75600000      -0.46690000       1.18370000
C        0.02950000      -0.67020000       2.29910000
N        0.59210000      -0.88790000       3.40540000
C       -0.23370000      -1.13990000       4.53410000
C        0.27380000      -2.12570000       5.56140000
C        0.25950000      -0.65370000       5.87740000
H        0.79030000       1.99020000       0.09080000
H       -0.71220000       1.80720000      -0.84130000
H       -0.75470000       1.76510000       0.93010000
H       -0.93530000      -0.54640000      -0.00440000
H        1.85010000      -0.02160000      -1.17110000
H        1.00070000      -1.57770000      -1.16960000
H        0.36190000      -0.21840000      -2.11920000
H       -1.06100000      -0.64980000       2.14510000
H       -1.31460000      -1.11700000       4.37340000
H       -0.44950000      -2.77140000       6.04700000
H        1.23230000      -2.58560000       5.35250000
H        1.20850000      -0.13100000       5.87900000
H       -0.47330000      -0.27790000       6.58280000
