21
Properties=species:S:1:pos:R:3 gdb_80532=T pbc="F F F"
C       -0.12560000       1.61190000      -0.06010000
C       -0.00940000       0.09260000      -0.01450000
C        1.06020000      -0.66260000      -0.88710000
C        2.39910000      -0.13000000      -0.32340000
C        2.12960000      -0.24970000       1.22290000
C        2.44980000       0.98490000       2.06600000
C        0.64460000      -0.70500000       1.17650000
C        0.78010000      -1.80660000       0.10490000
O        0.60920000      -2.98780000       0.04620000
H        0.83940000       2.12070000      -0.07200000
H       -0.66420000       1.91370000      -0.96480000
H       -0.69200000       1.98640000       0.79890000
H       -0.99840000      -0.33740000      -0.20730000
H        0.96000000      -0.78170000      -1.96470000
H        3.25070000      -0.73350000      -0.64760000
H        2.59160000       0.90250000      -0.62990000
H        2.72600000      -1.07670000       1.62610000
H        1.87180000       1.86310000       1.77080000
H        2.24490000       0.79430000       3.12490000
H        3.51200000       1.23950000       1.97670000
H        0.12820000      -0.87270000       2.12060000
