15
Properties=species:S:1:pos:R:3 gdb_23427=T pbc="F F F"
O       -0.11200000       1.32330000       0.04500000
N        0.04280000      -0.07260000       0.02980000
C       -1.08150000      -0.64610000      -0.06130000
C       -2.54540000      -0.26510000       0.03010000
N       -2.90700000      -1.72720000       0.21070000
C       -2.47100000      -2.42820000      -1.02200000
C       -2.52910000      -1.84300000      -2.33190000
C       -2.60630000      -1.37830000      -3.43820000
C       -1.43450000      -2.08410000       0.00500000
H        0.79720000       1.62850000       0.13500000
H       -2.78030000       0.29350000       0.93890000
H       -3.01030000       0.21200000      -0.83480000
H       -2.78360000      -3.46980000      -0.98690000
H       -2.66190000      -0.96670000      -4.41580000
H       -0.92340000      -2.85290000       0.57360000
