17
Properties=species:S:1:pos:R:3 gdb_34400=T pbc="F F F"
C        0.00630000      -1.21490000      -0.08670000
C       -0.00330000      -0.01410000      -0.02280000
C       -0.02790000       1.42770000       0.04420000
C       -0.31610000       2.23210000      -1.25110000
O        0.80570000       3.10100000      -1.00470000
C        1.30640000       2.23420000       0.03730000
C        1.40840000       2.89160000       1.41990000
O        0.34840000       2.34640000       2.19730000
C       -0.70620000       2.00510000       1.31800000
H        0.01840000      -2.27550000      -0.13970000
H       -0.18490000       1.64300000      -2.16560000
H       -1.26700000       2.77490000      -1.29110000
H        2.20700000       1.69980000      -0.27900000
H        2.34520000       2.67070000       1.93840000
H        1.30720000       3.98040000       1.30000000
H       -1.30040000       2.89300000       1.04920000
H       -1.34960000       1.28450000       1.82500000
