13
Properties=species:S:1:pos:R:3 gdb_20750=T pbc="F F F"
C       -0.26130000       1.47180000       0.01890000
C        0.03710000       0.00570000      -0.02950000
N        0.07580000      -0.55120000      -1.18870000
O        0.35680000      -1.92990000      -1.22220000
C        0.57820000      -2.64180000      -0.07150000
N        0.83370000      -3.88440000      -0.06740000
C        0.50110000      -1.87190000       1.16860000
N        0.24630000      -0.61820000       1.21150000
H        0.56290000       2.00080000       0.50820000
H       -0.40860000       1.86880000      -0.98540000
H       -1.15870000       1.64670000       0.62100000
H        0.84920000      -4.26190000      -1.01690000
H        0.67470000      -2.42430000       2.09000000
