20
Properties=species:S:1:pos:R:3 gdb_111885=T pbc="F F F"
O        0.20200000       0.85870000      -1.31840000
C        0.03880000       0.21250000      -0.06050000
C       -1.31980000      -0.45990000       0.02110000
C       -1.52590000      -1.91790000      -0.21770000
C       -0.38170000      -2.89810000      -0.43660000
O        0.61770000      -2.82990000       0.56530000
C        0.03940000      -2.92870000       1.85740000
C       -0.77950000      -1.68120000       2.18220000
N       -1.74280000      -1.34040000       1.11900000
H        0.21160000       0.17570000      -1.99650000
H        0.85070000      -0.49410000       0.14080000
H        0.09840000       1.01440000       0.68500000
H       -2.11380000       0.21320000      -0.30310000
H       -2.44650000      -2.22850000      -0.71230000
H       -0.79950000      -3.91840000      -0.46990000
H        0.12280000      -2.71970000      -1.39280000
H       -0.59640000      -3.82770000       1.91250000
H        0.86280000      -3.05030000       2.56670000
H       -1.34570000      -1.85230000       3.10600000
H       -0.10650000      -0.83840000       2.37500000
