12
Properties=species:S:1:pos:R:3 gdb_25549=T pbc="F F F"
O        0.33580000      -0.13460000      -0.13510000
C        0.47170000       1.01690000      -0.37780000
O        0.41260000       1.97440000       0.61750000
C        0.68150000       3.25540000       0.26810000
C        1.74090000       3.83340000      -0.31180000
O        1.50000000       5.18970000      -0.42550000
C        0.25650000       5.47510000       0.11240000
O       -0.22710000       6.56760000       0.17350000
N       -0.24880000       4.25570000       0.52580000
H        0.65910000       1.47440000      -1.36400000
H        2.68710000       3.45910000      -0.65730000
H       -1.13120000       4.14810000       0.99570000
