13
Properties=species:S:1:pos:R:3 gdb_13748=T pbc="F F F"
N       -0.10640000       1.16950000      -0.12370000
C       -0.08600000      -0.20000000      -0.03330000
O        0.82420000      -0.90150000      -0.40330000
N       -1.25300000      -0.71530000       0.58600000
C       -2.59220000      -0.55450000       0.05710000
C       -1.91940000      -1.90500000       0.09810000
C       -1.54950000      -2.52680000      -1.15450000
N       -1.32150000      -3.06630000      -2.15070000
H        0.78360000       1.59530000      -0.32910000
H       -0.72530000       1.69010000       0.47660000
H       -3.37310000      -0.32920000       0.77830000
H       -2.70480000      -0.09730000      -0.92250000
H       -2.20400000      -2.61530000       0.86940000
