15
Properties=species:S:1:pos:R:3 gdb_105591=T pbc="F F F"
O        0.17800000       1.34160000      -0.22070000
C        0.07600000       0.04060000       0.30100000
C       -1.35820000      -0.49360000       0.13600000
O       -1.70880000      -0.46520000      -1.28910000
C       -1.80570000      -1.90040000      -1.40890000
C       -1.46590000      -2.04760000       0.07480000
O       -1.32460000      -2.93690000       0.84980000
C       -2.33330000       0.17600000       0.97040000
C       -3.14700000       0.69160000       1.68860000
H       -0.15730000       1.30120000      -1.12520000
H        0.76790000      -0.65750000      -0.19670000
H        0.33570000       0.08360000       1.36180000
H       -2.81260000      -2.23470000      -1.68660000
H       -1.07300000      -2.32810000      -2.10360000
H       -3.86090000       1.16210000       2.31930000
