19
Properties=species:S:1:pos:R:3 gdb_94261=T pbc="F F F"
C       -0.62050000       1.22500000       0.02490000
C        0.17080000      -0.06950000      -0.07400000
C        1.55670000      -0.05820000      -0.76750000
C        2.12210000      -0.99360000       0.32890000
C        0.90560000      -0.68650000       1.22810000
C        1.12640000       0.38540000       2.26400000
O        2.11680000       1.06750000       2.34630000
C        0.12760000      -1.84550000       1.79430000
O        0.31070000      -2.99990000       1.50220000
H       -0.02110000       2.03330000       0.45550000
H       -0.92940000       1.54130000      -0.97750000
H       -1.52770000       1.11070000       0.62770000
H       -0.45680000      -0.86220000      -0.49310000
H        1.58190000      -0.41560000      -1.79920000
H        2.01220000       0.93480000      -0.72630000
H        2.12590000      -2.04710000       0.04520000
H        3.08610000      -0.71630000       0.75580000
H        0.27280000       0.53700000       2.96430000
H       -0.69240000      -1.55850000       2.49350000
