17
Properties=species:S:1:pos:R:3 gdb_83137=T pbc="F F F"
C       -0.11140000       1.56550000       0.05870000
C        0.03290000       0.06110000      -0.02900000
C        0.67520000      -0.67700000      -1.18730000
C        1.63010000       0.12500000      -2.05480000
O        2.66790000       0.63150000      -1.18070000
C        2.59620000       0.04740000       0.03980000
O        3.46540000       0.11450000       0.86590000
C        1.31690000      -0.71700000       0.17790000
O        1.36800000      -1.81940000       1.01140000
H        0.76180000       2.09210000      -0.33520000
H       -0.98830000       1.90340000      -0.50460000
H       -0.24440000       1.87820000       1.09920000
H       -0.80170000      -0.49550000       0.39180000
H        0.18260000      -1.54150000      -1.61450000
H        2.10940000      -0.49700000      -2.81710000
H        1.16590000       0.98680000      -2.54280000
H        2.10120000      -1.65220000       1.62080000
