23
Properties=species:S:1:pos:R:3 gdb_59964=T pbc="F F F"
C       -0.84070000       1.34710000       0.37970000
C       -0.05590000       0.05830000       0.12250000
C        1.00580000       0.23460000      -0.95740000
O        0.63070000      -0.36670000       1.30280000
C       -0.13130000      -1.10580000       2.24060000
C       -0.18780000      -2.59730000       1.90330000
C        0.44820000      -0.87640000       3.64930000
C        1.35310000       0.31980000       3.84490000
O        0.15320000      -1.62550000       4.55190000
H       -0.15900000       2.15370000       0.66830000
H       -1.38020000       1.65630000      -0.52130000
H       -1.57790000       1.21860000       1.17820000
H       -0.75520000      -0.73080000      -0.19260000
H        1.73450000       0.99160000      -0.65010000
H        1.53930000      -0.70420000      -1.12680000
H        0.55130000       0.55540000      -1.89940000
H       -1.16020000      -0.70950000       2.29280000
H       -0.72040000      -2.76860000       0.96390000
H        0.82600000      -2.99610000       1.80460000
H       -0.69860000      -3.13510000       2.70400000
H        0.85030000       1.23740000       3.52240000
H        1.63700000       0.39040000       4.89550000
H        2.24030000       0.22300000       3.21220000
