20
Properties=species:S:1:pos:R:3 gdb_61678=T pbc="F F F"
C       -0.04730000       1.43810000      -0.03820000
C        0.00580000      -0.09330000      -0.03180000
N        0.70290000      -0.72750000       1.08400000
C        2.14200000      -0.64840000       1.09310000
C        2.91730000       0.57760000       1.66360000
O        3.71090000      -0.28270000       2.50260000
C        2.87160000      -1.41810000       2.21390000
C       -1.38730000      -0.71620000      -0.11820000
O       -2.39300000      -0.11670000      -0.39450000
H        0.95590000       1.86600000      -0.11580000
H       -0.64780000       1.79470000      -0.87870000
H       -0.51400000       1.81080000       0.87940000
H        0.51570000      -0.43980000      -0.94610000
H        0.32340000      -0.40340000       1.96910000
H        2.50490000      -0.92710000       0.09950000
H        3.53380000       1.16460000       0.97260000
H        2.28530000       1.26070000       2.25100000
H        2.21510000      -1.67500000       3.05860000
H        3.44930000      -2.30420000       1.93020000
H       -1.38940000      -1.80580000       0.10610000
