17
Properties=species:S:1:pos:R:3 gdb_42719=T pbc="F F F"
O        0.00380000      -0.00080000       0.12590000
C       -0.01310000       1.18090000       0.05950000
C       -1.08500000       2.35290000      -0.03450000
C       -0.69370000       3.04670000       1.25850000
C        0.65290000       3.06470000       1.23830000
C        1.02380000       2.38120000      -0.06610000
C       -0.05290000       2.94640000      -1.02320000
C       -0.07430000       2.87380000      -2.51590000
C       -0.08160000       4.21790000      -1.79930000
H       -2.13100000       2.19200000      -0.28480000
H       -1.37020000       3.33910000       2.04830000
H        1.34470000       3.37550000       2.00770000
H        2.06570000       2.24830000      -0.34760000
H        0.83360000       2.57770000      -3.03150000
H       -0.98890000       2.55320000      -3.00420000
H       -1.00100000       4.79340000      -1.80950000
H        0.82130000       4.81790000      -1.83680000
