22
Properties=species:S:1:pos:R:3 gdb_103682=T pbc="F F F"
C       -0.09120000       1.70930000       0.00150000
C       -0.23120000       0.18590000      -0.08660000
C        0.66550000      -0.48920000      -1.13150000
C        0.39260000      -0.01620000      -2.55710000
C        2.19000000      -0.49990000      -0.75260000
N        2.11420000      -1.95690000      -0.66280000
C        0.69570000      -2.05050000      -0.99190000
C        3.00650000      -2.92330000      -0.36400000
O        2.75130000      -4.11060000      -0.32800000
H        0.94620000       2.00690000       0.19170000
H       -0.41580000       2.20450000      -0.91830000
H       -0.70060000       2.10510000       0.81940000
H       -0.00790000      -0.25300000       0.89420000
H       -1.27560000      -0.07480000      -0.30410000
H        0.60300000       1.05100000      -2.67720000
H        1.01590000      -0.55940000      -3.27490000
H       -0.65530000      -0.18500000      -2.83010000
H        2.86600000      -0.13020000      -1.53230000
H        2.43620000      -0.00480000       0.19430000
H        0.08310000      -2.46270000      -0.18230000
H        0.49210000      -2.61340000      -1.90920000
H        4.01340000      -2.50510000      -0.15310000
