16
Properties=species:S:1:pos:R:3 gdb_31352=T pbc="F F F"
C       -0.78710000       0.91690000       0.10820000
C        0.62790000       0.31180000       0.10370000
C        1.03650000      -0.18360000      -1.24710000
N        1.96870000       0.32140000      -1.94200000
C        2.24890000      -0.22820000      -3.21010000
N        3.18570000       0.27180000      -3.90750000
N        1.46390000      -1.32680000      -3.65990000
C        0.55950000      -1.75030000      -2.88420000
O        0.25740000      -1.25690000      -1.65150000
H       -0.84540000       1.77600000      -0.56630000
H       -1.53190000       0.18120000      -0.20580000
H       -1.04540000       1.25620000       1.11440000
H        1.37070000       1.04990000       0.41060000
H        0.66940000      -0.52980000       0.80550000
H        3.24420000      -0.24660000      -4.78560000
H       -0.08990000      -2.58380000      -3.13830000
