18
Properties=species:S:1:pos:R:3 gdb_121078=T pbc="F F F"
O        0.19980000       1.37830000       0.26560000
C        0.09110000      -0.01730000       0.04110000
C       -1.36360000      -0.49810000       0.06970000
C       -1.50000000      -2.00100000      -0.10200000
C       -2.94430000      -2.54200000      -0.04590000
N       -2.85390000      -3.60880000      -1.02310000
C       -1.83010000      -3.37880000      -1.91990000
O       -1.62620000      -3.92400000      -2.96740000
O       -1.02970000      -2.39340000      -1.40760000
H       -0.13190000       1.83060000      -0.51640000
H        0.56380000      -0.31730000      -0.90390000
H        0.65400000      -0.49450000       0.85150000
H       -1.81490000      -0.20670000       1.02610000
H       -1.93540000      -0.00070000      -0.72470000
H       -0.88070000      -2.52650000       0.63780000
H       -3.20220000      -2.91090000       0.95060000
H       -3.67190000      -1.76770000      -0.33050000
H       -3.66860000      -4.08500000      -1.37450000
