19
Properties=species:S:1:pos:R:3 gdb_87509=T pbc="F F F"
C       -0.03800000       1.51940000      -0.10560000
C        0.00890000       0.01950000       0.04770000
N        1.34980000      -0.62600000      -0.09150000
C        0.66480000      -0.66020000       1.17190000
C        1.16210000      -0.16890000       2.56270000
N       -0.13480000      -0.75400000       3.06220000
C        0.17840000      -1.83850000       2.06450000
C        1.53910000      -2.38680000       2.54550000
C        2.19570000      -1.26900000       2.87580000
H        0.85050000       1.97800000       0.33620000
H       -0.07430000       1.80410000      -1.16270000
H       -0.92440000       1.92980000       0.38950000
H       -0.83300000      -0.51310000      -0.39510000
H        1.28810000      -1.51830000      -0.57550000
H        1.38440000       0.87130000       2.79620000
H       -0.02560000      -1.10370000       4.01630000
H       -0.61850000      -2.52600000       1.77890000
H        1.86320000      -3.41760000       2.54630000
H        3.21050000      -1.12790000       3.21850000
