21
Properties=species:S:1:pos:R:3 gdb_101645=T pbc="F F F"
C        0.10910000       1.42390000       0.01080000
O       -0.15260000       0.05880000      -0.22850000
C        0.68650000      -0.55980000      -1.19650000
C        2.12530000      -0.73600000      -0.70470000
C        0.04240000      -1.90770000      -1.52690000
C       -1.44570000      -1.78560000      -1.94110000
N       -1.73960000      -0.94510000      -3.10350000
C       -1.99070000      -3.13410000      -2.17350000
N       -2.38090000      -4.20690000      -2.35130000
H        1.06850000       1.58750000       0.52020000
H        0.11120000       2.00720000      -0.92370000
H       -0.69200000       1.79480000       0.65470000
H        0.69920000       0.06670000      -2.10580000
H        2.60960000       0.22640000      -0.51890000
H        2.14130000      -1.31620000       0.22310000
H        2.72120000      -1.26510000      -1.45480000
H        0.60800000      -2.38790000      -2.33360000
H        0.11100000      -2.56240000      -0.65040000
H       -1.98860000      -1.35600000      -1.09320000
H       -1.53270000       0.02180000      -2.87850000
H       -1.15670000      -1.20880000      -3.89260000
