17
Properties=species:S:1:pos:R:3 gdb_12762=T pbc="F F F"
C        0.02780000       1.58610000       0.13440000
C        0.10080000       0.09290000       0.02460000
C       -0.89290000      -0.88840000       0.59170000
C        0.55940000      -0.99030000       0.99860000
C        1.38680000      -1.61740000      -0.13330000
N        0.87850000      -0.56470000      -1.03150000
C        0.65660000      -0.64670000      -2.36810000
O        1.12670000      -1.49720000      -3.09520000
H        1.02290000       2.03450000       0.05230000
H       -0.60520000       2.01640000      -0.64980000
H       -0.40380000       1.87270000       1.09790000
H       -1.55310000      -0.48860000       1.35530000
H       -1.34190000      -1.64620000      -0.04520000
H        0.88940000      -0.87850000       2.02200000
H        2.46860000      -1.54650000       0.01240000
H        1.12650000      -2.63380000      -0.44450000
H        0.02070000       0.18580000      -2.73410000
