19
Properties=species:S:1:pos:R:3 gdb_89278=T pbc="F F F"
O        0.29090000       1.27570000      -0.35630000
C        0.06350000      -0.08040000      -0.03680000
C        0.27230000      -0.47330000       1.45300000
C       -1.25930000      -0.58520000       1.62460000
O       -1.63130000      -1.72680000       2.36640000
C       -1.97780000       0.67020000       2.06430000
C       -2.66320000       1.24500000       1.07180000
C       -2.50050000       0.52970000      -0.25400000
C       -1.44110000      -0.53330000       0.06410000
H       -0.13500000       1.81520000       0.31990000
H        0.65760000      -0.64880000      -0.75480000
H        0.74330000      -1.45330000       1.56670000
H        0.80320000       0.25290000       2.07530000
H       -2.59150000      -1.72640000       2.44890000
H       -1.94880000       1.00920000       3.09520000
H       -3.27600000       2.13500000       1.17780000
H       -3.45230000       0.10720000      -0.60070000
H       -2.15240000       1.21110000      -1.03890000
H       -1.61320000      -1.50560000      -0.40010000
