14
Properties=species:S:1:pos:R:3 gdb_52567=T pbc="F F F"
C        0.12900000       1.41110000       0.00820000
C        0.08820000      -0.03980000       0.00080000
C        0.05610000      -1.24400000      -0.00540000
C       -0.05380000      -2.67490000      -0.01220000
O       -1.08060000      -3.30660000      -0.00620000
O        1.17680000      -3.25390000      -0.02670000
C        1.13780000      -4.68460000      -0.03430000
C        2.51530000      -5.17250000      -0.04980000
N        3.58810000      -5.59810000      -0.06230000
H        1.15960000       1.77950000      -0.00380000
H       -0.39010000       1.81610000      -0.86700000
H       -0.36590000       1.80630000       0.90170000
H        0.61390000      -5.05920000       0.85110000
H        0.59740000      -5.04940000      -0.91380000
