19
Properties=species:S:1:pos:R:3 gdb_57668=T pbc="F F F"
C       -0.04810000       1.55770000       0.01500000
C        0.05720000       0.02990000       0.07450000
C        0.78580000      -0.45420000       1.33120000
C       -1.36330000      -0.57890000      -0.01640000
C       -1.40480000      -2.03340000       0.05420000
C       -1.44930000      -3.23200000       0.12180000
O        0.70660000      -0.46890000      -1.13300000
C        1.98670000      -0.16260000      -1.39490000
O        2.54310000      -0.53650000      -2.38590000
H        0.93520000       2.03190000       0.07300000
H       -0.52790000       1.87290000      -0.91580000
H       -0.64310000       1.92800000       0.85520000
H        0.20710000      -0.18310000       2.21970000
H        0.89520000      -1.54040000       1.31120000
H        1.77420000       0.00160000       1.43070000
H       -1.96800000      -0.15190000       0.79290000
H       -1.81170000      -0.24370000      -0.95860000
H       -1.48730000      -4.29230000       0.16800000
H        2.47150000       0.45870000      -0.62170000
