21
Properties=species:S:1:pos:R:3 gdb_102557=T pbc="F F F"
C        0.02470000       1.43040000       0.00440000
O       -0.00770000       0.02010000      -0.04040000
C        0.66390000      -0.55660000      -1.15780000
C        2.15740000      -0.72960000      -0.85900000
O        2.39600000      -1.79140000       0.05650000
C        0.00380000      -1.90560000      -1.46010000
O        0.81280000      -2.75380000      -2.22890000
C       -0.92720000      -2.55240000      -0.46390000
C       -1.45940000      -1.97540000      -1.76090000
H        1.04650000       1.82710000       0.09070000
H       -0.44150000       1.87150000      -0.88900000
H       -0.54170000       1.73630000       0.88750000
H        0.56000000       0.10570000      -2.03290000
H        2.68890000      -0.98750000      -1.77810000
H        2.57300000       0.21840000      -0.48640000
H        1.80950000      -1.64480000       0.80810000
H        1.50740000      -3.06270000      -1.63100000
H       -0.86280000      -3.63230000      -0.38990000
H       -1.15670000      -2.02790000       0.45430000
H       -2.03360000      -1.05710000      -1.70310000
H       -1.76060000      -2.66580000      -2.53980000
