18
Properties=species:S:1:pos:R:3 gdb_47033=T pbc="F F F"
N       -0.04570000       1.20820000      -0.41490000
C        0.04540000       0.03430000       0.04790000
C       -1.07270000      -0.96770000      -0.08930000
C       -1.23500000      -1.80760000       1.18400000
C        0.06470000      -2.53130000       1.47880000
O        0.41130000      -3.49540000       0.45220000
C        1.61310000      -2.77870000       0.09830000
C        1.33500000      -1.70250000       1.16720000
O        1.16780000      -0.36170000       0.73470000
H        0.81340000       1.72870000      -0.22390000
H       -1.97650000      -0.41490000      -0.34610000
H       -0.85540000      -1.64330000      -0.92540000
H       -1.49440000      -1.16960000       2.03760000
H       -2.03960000      -2.54020000       1.06470000
H        0.05630000      -3.00080000       2.46930000
H        2.51510000      -3.38100000       0.25730000
H        1.59690000      -2.41300000      -0.93550000
H        2.07250000      -1.64950000       1.96800000
