21
Properties=species:S:1:pos:R:3 gdb_126417=T pbc="F F F"
C        0.02280000       1.55650000       0.07630000
C       -0.07880000       0.03160000      -0.10180000
C        0.73270000      -0.48570000      -1.25200000
N        0.14990000      -0.76270000      -2.41610000
N        1.16100000      -1.17210000      -3.20870000
C        2.37060000      -1.17590000      -2.58860000
C        3.62320000      -1.58910000      -3.28990000
C        2.13460000      -0.72800000      -1.29960000
C        3.13190000      -0.54290000      -0.19700000
H        1.05600000       1.86950000       0.25830000
H       -0.32830000       2.07250000      -0.82240000
H       -0.58380000       1.89300000       0.92320000
H        0.24040000      -0.46260000       0.82460000
H       -1.12350000      -0.24850000      -0.26810000
H        0.95610000      -1.46210000      -4.14970000
H        4.04220000      -0.77890000      -3.89910000
H        4.38860000      -1.88280000      -2.56740000
H        3.44940000      -2.44380000      -3.95280000
H        3.39440000       0.51130000      -0.04310000
H        2.74650000      -0.91710000       0.75790000
H        4.06370000      -1.07830000      -0.40400000
