16
Properties=species:S:1:pos:R:3 gdb_1480=T pbc="F F F"
C        0.01220000       1.70270000      -0.11600000
C        0.01400000       0.17210000      -0.00520000
C        0.66300000      -0.49850000      -1.21460000
O        2.04460000      -0.15070000      -1.20400000
N        0.70320000      -0.28110000       1.19730000
C        0.06400000      -0.57780000       2.35530000
O       -1.13690000      -0.51980000       2.52790000
H        1.03170000       2.08410000      -0.21750000
H       -0.56280000       2.02380000      -0.99090000
H       -0.44410000       2.14190000       0.77440000
H       -1.01660000      -0.18380000       0.08050000
H        0.53140000      -1.58780000      -1.14310000
H        0.17060000      -0.15140000      -2.13500000
H        2.48760000      -0.62960000      -1.90970000
H        1.70910000      -0.33670000       1.15030000
H        0.77250000      -0.89410000       3.14730000
