16
Properties=species:S:1:pos:R:3 gdb_27345=T pbc="F F F"
C        0.09640000       1.45790000      -0.00130000
C       -0.05180000      -0.02420000      -0.02440000
C       -1.17640000      -0.74070000      -0.09280000
C       -1.13120000      -2.20210000      -0.10150000
N       -2.21290000      -2.88370000      -0.16570000
N        0.14670000      -2.78400000      -0.02990000
C        1.17030000      -2.01830000       0.01900000
N        2.44610000      -2.49540000       0.02450000
O        1.17850000      -0.65390000       0.03330000
H        0.70030000       1.80050000      -0.84890000
H       -0.88260000       1.93710000      -0.04890000
H        0.60560000       1.78330000       0.91290000
H       -2.14000000      -0.25180000      -0.13940000
H       -1.97200000      -3.87740000      -0.15930000
H        2.53610000      -3.47720000       0.22780000
H        3.16890000      -1.88480000       0.36810000
