19
Properties=species:S:1:pos:R:3 gdb_53491=T pbc="F F F"
C        0.13960000       1.43040000      -0.20540000
C        0.06020000      -0.01730000      -0.06350000
C        0.03090000      -1.21520000       0.07080000
C       -0.06930000      -2.66500000       0.19090000
C       -1.53840000      -3.14880000       0.04450000
C       -2.41260000      -2.67500000       1.21820000
O       -2.08380000      -2.74450000      -1.20050000
C       -1.55990000      -4.67540000       0.01260000
O       -0.94560000      -5.37090000       0.77870000
H        0.92590000       1.84510000       0.43480000
H        0.36550000       1.71930000      -1.23760000
H       -0.80310000       1.91200000       0.07600000
H        0.53240000      -3.14230000      -0.59180000
H        0.32480000      -3.01800000       1.14940000
H       -2.38230000      -1.58320000       1.28350000
H       -3.44950000      -2.98540000       1.06300000
H       -2.05390000      -3.09430000       2.16240000
H       -1.93190000      -1.79460000      -1.28060000
H       -2.21240000      -5.09380000      -0.78430000
