16
Properties=species:S:1:pos:R:3 gdb_61703=T pbc="F F F"
C       -0.11520000       1.55000000      -0.21490000
C        0.06830000       0.03670000      -0.01130000
N        0.79550000      -0.28240000       1.22440000
C        0.21520000      -0.16390000       2.44530000
O       -0.94620000       0.14620000       2.61910000
C       -1.31880000      -0.67700000       0.03230000
O       -2.30440000      -0.22760000      -0.47510000
C        0.79120000      -0.57760000      -1.12640000
C        1.36850000      -1.09510000      -2.04450000
H        0.85610000       2.03510000      -0.33360000
H       -0.72140000       1.72710000      -1.10420000
H       -0.63360000       1.96610000       0.65080000
H        1.77140000      -0.52370000       1.15480000
H        0.91580000      -0.39060000       3.27110000
H       -1.27960000      -1.67540000       0.51270000
H        1.87630000      -1.54270000      -2.86360000
