21
Properties=species:S:1:pos:R:3 gdb_107491=T pbc="F F F"
O        0.05700000       1.44520000       0.07990000
C        0.01660000       0.03010000      -0.07750000
C       -1.40060000      -0.43990000       0.00540000
C       -1.89290000      -1.63950000      -0.76580000
C       -2.54800000      -0.30700000      -1.00360000
C       -3.53740000       0.01100000       0.12680000
C       -2.38030000      -0.15460000       1.13590000
C       -2.40550000      -0.77230000       2.50660000
C       -2.13320000       0.70710000       2.33230000
H        0.98060000       1.71230000       0.11280000
H        0.44040000      -0.27270000      -1.04870000
H        0.61900000      -0.46540000       0.70330000
H       -1.23860000      -1.98430000      -1.56120000
H       -2.42760000      -2.43470000      -0.25120000
H       -2.53210000       0.17100000      -1.97530000
H       -3.90890000       1.03860000       0.09050000
H       -4.38810000      -0.67320000       0.22500000
H       -3.36550000      -1.07000000       2.91680000
H       -1.58040000      -1.41580000       2.79710000
H       -1.12500000       1.07260000       2.48920000
H       -2.91060000       1.40760000       2.62240000
