16
Properties=species:S:1:pos:R:3 gdb_77210=T pbc="F F F"
O        0.19200000       1.35870000      -0.05650000
C        0.04970000      -0.02540000      -0.02170000
C        0.13700000      -0.69190000       1.40160000
N       -1.35050000      -0.80250000       1.40340000
C       -1.42190000      -0.58040000      -0.06620000
C       -2.45860000       0.33850000      -0.50130000
C       -3.28370000       1.13970000      -0.85310000
C        0.85880000      -1.95260000       1.43410000
C        1.42980000      -3.01180000       1.44040000
H       -0.60410000       1.75960000       0.31400000
H        0.73000000      -0.44570000      -0.76240000
H        0.51120000      -0.01100000       2.17400000
H       -1.71080000      -1.69690000       1.71800000
H       -1.46330000      -1.50560000      -0.65630000
H       -4.02690000       1.82980000      -1.16910000
H        1.94410000      -3.94100000       1.45890000
