18
Properties=species:S:1:pos:R:3 gdb_83124=T pbc="F F F"
C       -0.04380000       1.53560000      -0.00400000
C        0.04410000       0.03120000       0.03870000
C       -0.80890000      -0.78200000       0.97360000
O       -1.50100000      -1.88570000       0.47170000
C        0.69000000      -0.81080000       1.13550000
C        1.41660000      -1.96920000       0.45390000
N        1.17260000      -1.74720000      -0.95890000
C        0.38870000      -0.66760000      -1.26400000
O        0.06450000      -0.30760000      -2.37470000
H        0.92870000       1.98390000      -0.23260000
H       -0.74260000       1.83950000      -0.78880000
H       -0.38990000       1.94250000       0.95060000
H       -1.35910000      -0.19720000       1.71180000
H       -1.61240000      -2.52030000       1.18810000
H        1.14280000      -0.36330000       2.01270000
H        2.48870000      -1.94790000       0.68470000
H        1.02190000      -2.94180000       0.77860000
H        1.38730000      -2.42880000      -1.66870000
