18
Properties=species:S:1:pos:R:3 gdb_127247=T pbc="F F F"
C        0.06900000       1.43340000       0.03080000
N        0.01310000      -0.01080000      -0.06780000
C        0.12030000      -0.80320000      -1.16130000
C       -0.01840000      -2.08610000      -0.68000000
C        0.04330000      -3.40000000      -1.38900000
C        1.40160000      -4.10050000      -1.20570000
O        1.46780000      -5.34070000      -1.88740000
N       -0.19870000      -2.00470000       0.67160000
N       -0.18120000      -0.75550000       1.03810000
H        1.03320000       1.80800000      -0.32390000
H       -0.73320000       1.89290000      -0.55320000
H       -0.05550000       1.68840000       1.08310000
H        0.27380000      -0.40610000      -2.15100000
H       -0.74580000      -4.05250000      -0.99570000
H       -0.14500000      -3.26930000      -2.45920000
H        2.19660000      -3.47980000      -1.63250000
H        1.61230000      -4.20960000      -0.13210000
H        0.86280000      -5.94890000      -1.45090000
