25
Properties=species:S:1:pos:R:3 gdb_103924=T pbc="F F F"
C       -0.14550000       1.54170000      -0.06660000
C        0.12420000       0.03200000      -0.07890000
C        0.74320000      -0.52590000       1.21050000
C        2.13020000       0.06610000       1.47650000
C       -0.14660000      -0.49200000       2.51060000
C        0.00500000      -2.01610000       2.64970000
C        0.22990000      -2.73490000       3.94910000
C       -0.58190000      -2.67470000       1.43280000
C        0.79170000      -2.06410000       1.33590000
H        0.77760000       2.12430000       0.01070000
H       -0.65220000       1.85270000      -0.98560000
H       -0.78680000       1.82410000       0.77570000
H       -0.81820000      -0.49030000      -0.27900000
H        0.78810000      -0.21370000      -0.91930000
H        2.08520000       1.14700000       1.64320000
H        2.58360000      -0.38780000       2.36400000
H        2.80310000      -0.11670000       0.62980000
H        0.32290000       0.07080000       3.32210000
H       -1.17480000      -0.13210000       2.39100000
H       -0.67520000      -2.72940000       4.56960000
H        0.50540000      -3.78150000       3.78040000
H        1.03160000      -2.26810000       4.53350000
H       -0.59360000      -3.76070000       1.45550000
H       -1.43430000      -2.24000000       0.91550000
H        1.65940000      -2.66690000       1.08510000
