16
Properties=species:S:1:pos:R:3 gdb_33974=T pbc="F F F"
C       -0.01450000      -1.20890000      -0.06510000
C        0.02070000      -0.00840000       0.01340000
C        0.03150000       1.40540000       0.11470000
N        0.25070000       2.30430000      -1.06940000
C        1.15830000       2.40410000       0.08500000
C        0.45540000       3.30400000       1.11270000
C       -0.70970000       2.28930000       1.11780000
C       -2.13990000       2.41560000       1.37140000
O       -1.24940000       1.78090000       2.31310000
H       -0.03960000      -2.26880000      -0.12460000
H        0.71090000       1.73080000      -1.77740000
H        2.21950000       2.21340000      -0.01090000
H        0.95260000       3.31280000       2.08550000
H        0.24090000       4.32240000       0.78240000
H       -2.55010000       3.37050000       1.69530000
H       -2.83810000       1.74720000       0.87100000
