13
Properties=species:S:1:pos:R:3 gdb_129503=T pbc="F F F"
N       -0.12840000       1.34600000      -0.11790000
C        0.10980000       0.00800000      -0.07380000
O        1.19190000      -0.52050000      -0.08950000
N       -1.09690000      -0.74840000      -0.02320000
N       -2.33630000      -0.11750000       0.02680000
C       -3.17480000      -1.07940000       0.06660000
O       -2.63540000      -2.31740000       0.04820000
C       -1.24020000      -2.13720000      -0.01180000
N       -0.37390000      -3.04270000      -0.04650000
H        0.67440000       1.94650000      -0.05730000
H       -1.05560000       1.71590000      -0.00230000
H       -4.24830000      -0.98900000       0.11280000
H       -0.80850000      -3.96230000      -0.02550000
