18
Properties=species:S:1:pos:R:3 gdb_54782=T pbc="F F F"
N        0.69610000       0.07590000       1.22230000
C        0.12650000      -0.03440000      -0.01690000
O        0.61260000       0.49800000      -0.99830000
C       -1.15990000      -0.84900000      -0.02540000
C       -1.92160000      -0.96340000      -1.39270000
C       -0.86910000      -2.06010000      -1.78090000
C       -1.02480000      -2.41210000      -0.26250000
C       -2.51040000      -2.80010000      -0.21930000
C       -3.09570000      -1.85370000      -0.95980000
H        1.59030000       0.53340000       1.29410000
H        0.35070000      -0.43430000       2.01610000
H       -1.77620000      -0.57990000       0.83790000
H       -2.10570000      -0.08870000      -2.01280000
H       -1.18870000      -2.82230000      -2.49450000
H        0.10180000      -1.64020000      -2.04520000
H       -0.30220000      -3.02010000       0.28240000
H       -2.93560000      -3.64770000       0.29920000
H       -4.13620000      -1.71140000      -1.21460000
