20
Properties=species:S:1:pos:R:3 gdb_120002=T pbc="F F F"
C       -0.28560000       1.53150000      -0.08150000
C        0.10300000       0.07060000      -0.04070000
O        1.35760000      -0.18140000      -0.77000000
C        1.96410000      -0.68690000       0.35710000
N        3.13640000      -1.09760000       0.54010000
C        0.74350000      -0.53300000       1.24350000
C        0.89810000       0.30500000       2.51120000
C        1.63060000      -0.46510000       3.61730000
O        1.75500000       0.29600000       4.80860000
H        0.51120000       2.17010000       0.30800000
H       -0.49470000       1.83480000      -1.11160000
H       -1.18990000       1.70000000       0.51240000
H       -0.68700000      -0.55490000      -0.46800000
H        3.69240000      -1.03220000      -0.31440000
H        0.30620000      -1.50550000       1.49310000
H        1.45420000       1.22460000       2.29110000
H       -0.08720000       0.60770000       2.88490000
H        1.05160000      -1.35480000       3.89100000
H        2.60490000      -0.81050000       3.24630000
H        2.41650000       0.97730000       4.65350000
