18
Properties=species:S:1:pos:R:3 gdb_54175=T pbc="F F F"
C        0.21780000       1.26000000      -0.45570000
C       -0.10840000       0.11910000       0.48340000
O        0.54540000      -0.11410000       1.47420000
C       -1.35480000      -0.71620000       0.20500000
C       -2.18160000      -0.98920000       1.44730000
N       -1.99640000      -0.51750000      -1.08770000
C       -1.32470000      -1.80850000      -0.84640000
C       -0.13110000      -2.12060000      -1.68270000
O        0.23640000      -3.24580000      -1.90680000
H        1.17140000       1.70240000      -0.16640000
H        0.23420000       0.94400000      -1.50040000
H       -0.57600000       2.01360000      -0.38470000
H       -2.60340000      -0.05710000       1.83950000
H       -3.00530000      -1.67470000       1.22790000
H       -1.55130000      -1.42410000       2.22520000
H       -3.00520000      -0.62950000      -1.02150000
H       -1.92490000      -2.68580000      -0.61490000
H        0.39820000      -1.23730000      -2.09880000
