18
Properties=species:S:1:pos:R:3 gdb_110229=T pbc="F F F"
C       -0.18670000       1.51060000       0.16620000
C        0.05570000       0.04420000       0.05390000
O       -1.12780000      -0.81800000       0.00610000
C       -0.51320000      -1.71550000       0.87870000
N       -0.96470000      -2.74850000       1.42720000
C        0.77850000      -0.97420000       0.91960000
C        1.21640000      -0.68370000      -0.53230000
C        1.14270000      -1.71810000      -1.63660000
O        2.11170000      -2.74010000      -1.47300000
H        0.76000000       2.04010000       0.30390000
H       -0.66000000       1.89330000      -0.74440000
H       -0.84180000       1.73340000       1.01340000
H       -1.93550000      -2.91600000       1.15710000
H        1.43530000      -0.86220000       1.76980000
H        2.12870000      -0.08970000      -0.54020000
H        0.12570000      -2.12450000      -1.70450000
H        1.36920000      -1.24200000      -2.59640000
H        1.89370000      -3.21420000      -0.66290000
