16
Properties=species:S:1:pos:R:3 gdb_67398=T pbc="F F F"
O       -0.11360000       1.39430000      -0.00910000
C        0.01930000       0.03090000      -0.00060000
C       -1.01680000      -1.01880000      -0.02480000
N       -0.44050000      -1.69170000      -1.17390000
C        0.81410000      -0.88330000      -1.00310000
C        1.85190000      -1.62670000      -0.16570000
C        1.17750000      -1.77300000       1.21570000
O        1.58220000      -2.44840000       2.13050000
C       -0.02460000      -0.89390000       1.20370000
H        0.61670000       1.78180000       0.48690000
H       -2.08210000      -0.98090000       0.16880000
H       -0.30000000      -2.69480000      -1.05700000
H        1.17470000      -0.43160000      -1.92760000
H        2.14680000      -2.59980000      -0.56950000
H        2.76670000      -1.03200000      -0.04500000
H       -0.48940000      -0.57720000       2.12910000
