13
Properties=species:S:1:pos:R:3 gdb_19332=T pbc="F F F"
N        0.08420000      -1.14850000      -0.03930000
C        0.05010000       0.00950000      -0.02570000
C       -0.00880000       1.42660000       0.02170000
C        0.24260000       2.33410000      -1.16890000
C        1.15990000       2.43470000       0.00700000
C        0.48880000       3.17440000       1.20530000
O       -0.83460000       3.58190000       0.82470000
C       -0.62120000       2.23250000       1.22780000
H        0.65440000       1.82750000      -2.03430000
H       -0.46980000       3.12250000      -1.37360000
H        2.21130000       2.18650000      -0.03270000
H        0.98460000       3.72850000       1.99130000
H       -1.22600000       1.81930000       2.02470000
