21
Properties=species:S:1:pos:R:3 gdb_98314=T pbc="F F F"
C        0.00950000       1.54920000      -0.00990000
C       -0.03970000       0.02310000       0.02370000
C       -1.46850000      -0.50360000      -0.01060000
O       -2.42870000       0.24000000      -0.06530000
N       -1.61380000      -1.89180000       0.02490000
C       -0.47710000      -2.80740000       0.09240000
C       -2.90720000      -2.42050000      -0.00220000
N       -3.13220000      -3.66620000       0.02820000
C       -4.51610000      -4.09260000      -0.00600000
H        1.04610000       1.89660000       0.01420000
H       -0.46770000       1.93450000      -0.91380000
H       -0.52190000       1.97530000       0.84410000
H        0.51520000      -0.40240000      -0.82210000
H        0.45980000      -0.36280000       0.92130000
H        0.10490000      -2.65350000       1.00610000
H       -0.88210000      -3.81820000       0.09390000
H        0.18320000      -2.68610000      -0.77120000
H       -3.66770000      -1.63890000      -0.05170000
H       -4.67870000      -4.74380000      -0.87290000
H       -4.73840000      -4.69090000       0.88540000
H       -5.23690000      -3.26150000      -0.05550000
