16
Properties=species:S:1:pos:R:3 gdb_29635=T pbc="F F F"
C       -0.02070000       1.46330000       0.01700000
N        0.00020000      -0.00100000       0.03720000
C       -0.02170000      -0.67830000      -1.23850000
O       -0.05570000      -0.03130000      -2.25940000
N       -0.00070000      -2.05510000      -1.17740000
C        0.03590000      -2.61470000      -0.00400000
N        0.05720000      -2.01720000       1.21820000
C        0.03830000      -0.70590000       1.19420000
C        0.05980000       0.03490000       2.49840000
H        0.87590000       1.87030000       0.49170000
H       -0.04900000       1.75910000      -1.02950000
H       -0.90540000       1.84550000       0.53280000
H        0.05170000      -3.70370000       0.01950000
H        0.08890000      -0.69470000       3.30590000
H        0.93450000       0.68990000       2.56820000
H       -0.82750000       0.66660000       2.61060000
