15
Properties=species:S:1:pos:R:3 gdb_27702=T pbc="F F F"
C       -0.01600000       1.44210000       0.03220000
C        0.01850000      -0.04750000      -0.02570000
N        0.05330000      -0.77370000      -1.13520000
C        0.07620000      -2.07010000      -0.72870000
O        0.11370000      -3.08790000      -1.60590000
C        0.05600000      -2.17710000       0.65070000
N        0.01860000      -0.84130000       1.07040000
C        0.06640000      -3.26920000       1.52700000
C        0.07480000      -4.19720000       2.29790000
H        0.85280000       1.84820000       0.56270000
H       -0.01200000       1.83280000      -0.98590000
H       -0.91530000       1.80800000       0.54050000
H        0.11910000      -2.68830000      -2.48460000
H       -0.00380000      -0.54570000       2.03200000
H        0.08270000      -5.02500000       2.96200000
