16
Properties=species:S:1:pos:R:3 gdb_51303=T pbc="F F F"
O       -0.54440000       0.56810000       0.60840000
C        0.22710000       0.87810000      -0.26070000
C        1.34930000       1.89690000      -0.07380000
C        1.31960000       2.95310000      -1.13250000
C        1.00830000       4.25050000      -1.05760000
C        1.12700000       4.90360000      -2.41060000
N        1.54690000       3.80070000      -3.24420000
C        1.66700000       2.62060000      -2.55380000
O        1.98530000       1.53500000      -2.99980000
H        0.18390000       0.43200000      -1.27540000
H        1.27670000       2.31550000       0.93210000
H        2.29150000       1.33790000      -0.16570000
H        0.71440000       4.80370000      -0.17490000
H        0.16850000       5.33260000      -2.73770000
H        1.86150000       5.72190000      -2.40230000
H        1.70110000       3.85830000      -4.23610000
