14
Properties=species:S:1:pos:R:3 gdb_130198=T pbc="F F F"
N       -0.02760000       1.30920000       0.12690000
C       -0.05330000      -0.05170000       0.05010000
N       -1.20170000      -0.68450000       0.03190000
N       -1.12760000      -2.02820000       0.00880000
C        0.01980000      -2.74360000      -0.00050000
C        1.23970000      -2.11940000      -0.00010000
O        2.43120000      -2.77490000      -0.02130000
C        1.28960000      -0.67920000       0.01380000
O        2.30700000       0.01450000      -0.01150000
H        0.87680000       1.70380000      -0.09030000
H       -0.85310000       1.81710000      -0.14240000
H       -2.02170000      -2.48840000       0.00250000
H       -0.09570000      -3.82250000      -0.01420000
H        2.27920000      -3.72560000      -0.03840000
