18
Properties=species:S:1:pos:R:3 gdb_38803=T pbc="F F F"
C       -0.04380000       1.57590000       0.04940000
C        1.50460000       1.43180000       0.00160000
C        1.77890000       0.78810000       1.37440000
C        0.72880000      -0.36180000       1.30450000
O        1.37340000      -1.64580000       1.14760000
C        2.13340000      -1.73690000       0.03030000
N        2.19240000      -0.92330000      -0.94060000
C        1.24640000       0.17290000      -0.89990000
C       -0.00950000       0.02980000       0.01260000
H       -0.47830000       2.06880000       0.92390000
H       -0.46700000       1.99660000      -0.86560000
H        2.15380000       2.24740000      -0.31520000
H        2.79070000       0.39200000       1.48350000
H        1.59050000       1.47920000       2.20070000
H        0.10400000      -0.46630000       2.19110000
H        2.73630000      -2.64290000       0.04980000
H        0.98770000       0.46610000      -1.91930000
H       -0.86590000      -0.58190000      -0.26770000
