15
Properties=species:S:1:pos:R:3 gdb_24176=T pbc="F F F"
C       -0.03520000       1.39800000       0.01050000
C        1.27810000       1.84970000       0.00010000
N        2.09580000       0.75950000      -0.01400000
C        3.46660000       0.65060000      -0.02810000
C        4.02440000      -0.58860000      -0.04040000
N        3.30360000      -1.75480000      -0.03980000
C        1.99810000      -1.64130000      -0.02630000
C        1.30700000      -0.40950000      -0.01270000
C       -0.02640000      -0.00660000       0.00260000
H       -0.90660000       2.03540000       0.02260000
H        1.68630000       2.84760000       0.00160000
H        4.03110000       1.57380000      -0.02850000
H        5.10390000      -0.68850000      -0.05160000
H        1.41340000      -2.55920000      -0.02570000
H       -0.87980000      -0.66630000       0.00730000
