12
Properties=species:S:1:pos:R:3 gdb_422=T pbc="F F F"
C       -0.15570000       1.55500000       0.06490000
C        0.00650000       0.04410000      -0.04810000
C        0.88500000      -0.53790000      -1.17420000
O        1.78990000      -1.12310000      -0.18260000
C        1.06160000      -0.60250000       0.85950000
O        1.29170000      -0.68740000       2.02210000
H        0.80540000       2.06660000      -0.04790000
H       -0.83690000       1.93380000      -0.70290000
H       -0.56470000       1.81950000       1.04400000
H       -0.95860000      -0.46180000       0.04810000
H        0.43960000      -1.31510000      -1.79810000
H        1.41230000       0.19490000      -1.78980000
