20
Properties=species:S:1:pos:R:3 gdb_103130=T pbc="F F F"
C       -0.38200000       1.34850000       0.05250000
N        0.00960000      -0.05410000       0.18870000
C        1.30030000      -0.53450000      -0.34070000
C        2.33890000       0.34300000      -0.93800000
O        2.53260000       1.51400000      -0.69500000
C        0.99570000      -0.49060000       1.15380000
C        1.69850000       0.47110000       2.08850000
C        0.59950000      -1.81620000       1.79610000
O       -0.43880000      -1.62380000       2.74040000
H        0.44480000       2.06320000       0.06460000
H       -0.91890000       1.45910000      -0.89440000
H       -1.07850000       1.58320000       0.86340000
H        1.23670000      -1.50180000      -0.83770000
H        2.97400000      -0.18800000      -1.68230000
H        1.97080000       1.40750000       1.60410000
H        1.04710000       0.67520000       2.94350000
H        2.61340000       0.01090000       2.47560000
H        0.30090000      -2.52910000       1.01480000
H        1.44370000      -2.24350000       2.34720000
H       -1.19230000      -1.28380000       2.24350000
