20
Properties=species:S:1:pos:R:3 gdb_122475=T pbc="F F F"
C        0.52170000       1.07420000       0.35880000
O        0.82120000       0.50500000      -0.89570000
C       -0.12970000      -0.43560000      -1.35030000
C        0.04050000      -1.81430000      -0.70160000
N       -0.94370000      -2.72940000      -1.27180000
C       -0.52900000      -3.52130000      -2.41730000
C       -0.74230000      -4.17840000      -1.08490000
C        0.37590000      -4.69740000      -0.34570000
C        1.28260000      -5.14500000       0.30610000
H       -0.47080000       1.55170000       0.35950000
H        0.55030000       0.34070000       1.17780000
H        1.27930000       1.83750000       0.55360000
H       -1.15680000      -0.07500000      -1.18700000
H        0.02210000      -0.52350000      -2.43200000
H        1.07870000      -2.15260000      -0.83910000
H       -0.14310000      -1.75630000       0.37650000
H       -1.26590000      -3.65540000      -3.20450000
H        0.50260000      -3.43550000      -2.75470000
H       -1.67280000      -4.71960000      -0.92820000
H        2.08950000      -5.54150000       0.87120000
