22
Properties=species:S:1:pos:R:3 gdb_62071=T pbc="F F F"
C       -0.45700000       1.38610000      -0.02310000
N       -0.02830000      -0.00170000      -0.01260000
C       -0.11180000      -0.75730000       1.22520000
C       -1.54550000      -1.11970000       1.64770000
C       -1.57400000      -1.92410000       2.92920000
C       -1.53410000      -1.22970000       4.26990000
C       -2.79450000      -1.92120000       3.81270000
C        0.46510000      -0.56130000      -1.15430000
O        0.56670000      -0.00840000      -2.22980000
H        0.06290000       1.95320000       0.75850000
H       -0.21190000       1.80050000      -1.00110000
H       -1.53650000       1.47910000       0.14180000
H        0.46980000      -1.67680000       1.09440000
H        0.37380000      -0.18790000       2.02930000
H       -2.13440000      -0.20440000       1.78300000
H       -2.02200000      -1.68030000       0.83320000
H       -1.03690000      -2.86850000       2.87470000
H       -0.95930000      -1.67950000       5.07170000
H       -1.52930000      -0.14410000       4.27800000
H       -3.63330000      -1.30070000       3.51420000
H       -3.08070000      -2.84670000       4.29970000
H        0.77810000      -1.61150000      -0.98890000
