19
Properties=species:S:1:pos:R:3 gdb_39942=T pbc="F F F"
C       -0.22010000       1.45700000       0.01760000
O        1.10480000       0.93730000      -0.05450000
C       -0.00140000      -0.00090000       0.02320000
C       -0.07220000      -0.75140000       1.29900000
C       -0.10760000      -2.08250000       1.36230000
C       -0.05890000      -2.99680000       0.16800000
C       -0.28940000      -2.29640000      -1.15990000
C       -1.56000000      -1.52000000      -1.39360000
C       -0.24800000      -0.78580000      -1.22870000
H       -0.47480000       1.97210000       0.94430000
H       -0.58960000       1.93410000      -0.89030000
H       -0.06320000      -0.15640000       2.20780000
H       -0.14130000      -2.56590000       2.33580000
H        0.92470000      -3.48920000       0.15560000
H       -0.78550000      -3.81140000       0.29670000
H        0.10940000      -2.82360000      -2.02100000
H       -2.00850000      -1.54610000      -2.38030000
H       -2.27250000      -1.45920000      -0.57700000
H        0.18480000      -0.32870000      -2.11230000
