22
Properties=species:S:1:pos:R:3 gdb_75142=T pbc="F F F"
C       -0.05010000       1.49710000       0.06750000
C       -0.04630000       0.00280000      -0.06860000
N       -0.04460000      -0.57260000      -1.19810000
C        0.00700000      -2.02900000      -1.25520000
C        0.49330000      -2.71110000       0.04060000
C        0.12010000      -4.19840000       0.03830000
C        2.01490000      -2.54770000       0.20040000
C       -0.24000000      -2.00390000       1.18460000
O       -0.03320000      -0.58720000       1.16260000
H        0.81290000       1.82530000       0.65600000
H       -0.01800000       1.95430000      -0.92050000
H       -0.94720000       1.82860000       0.60040000
H       -0.99340000      -2.39970000      -1.52000000
H        0.66000000      -2.30880000      -2.09130000
H        0.58060000      -4.71100000      -0.81310000
H        0.46540000      -4.69790000       0.95080000
H       -0.96380000      -4.33970000      -0.03420000
H        2.31470000      -1.49670000       0.18370000
H        2.35860000      -2.98010000       1.14670000
H        2.54200000      -3.05840000      -0.61220000
H       -1.31930000      -2.20120000       1.12270000
H        0.11310000      -2.33870000       2.16450000
