18
Properties=species:S:1:pos:R:3 gdb_126801=T pbc="F F F"
C       -0.01460000       1.57160000       0.18570000
C       -0.03810000       0.06190000      -0.05860000
N       -1.38480000      -0.47920000      -0.08270000
N       -2.07070000      -0.68310000       1.08160000
C       -3.26360000      -1.12880000       0.70320000
C       -3.37630000      -1.21760000      -0.70380000
N       -4.39710000      -1.62720000      -1.61060000
C       -2.14280000      -0.78400000      -1.15430000
O       -1.68990000      -0.66000000      -2.41500000
H        1.01820000       1.93030000       0.23460000
H       -0.52680000       2.10550000      -0.62020000
H       -0.51140000       1.80810000       1.12990000
H        0.42690000      -0.18750000      -1.01600000
H        0.50570000      -0.46310000       0.73160000
H       -4.00200000      -1.37770000       1.45320000
H       -5.23540000      -1.06160000      -1.52170000
H       -4.67430000      -2.59240000      -1.46160000
H       -2.42400000      -0.96120000      -2.97280000
