19
Properties=species:S:1:pos:R:3 gdb_80719=T pbc="F F F"
C        0.15120000       1.79450000      -0.57580000
C        0.08510000       0.28240000      -0.54700000
C        0.61530000      -0.63740000      -1.57010000
C        1.96190000      -0.17470000      -2.13030000
C        2.48670000      -0.28400000      -0.67610000
C        3.24360000       0.88070000      -0.02140000
C        3.53260000       0.63540000       1.39080000
N        3.76860000       0.44300000       2.50530000
N        1.13970000      -0.67550000      -0.12900000
H        0.92480000       2.18930000      -1.23780000
H       -0.80760000       2.18130000      -0.93710000
H        0.31110000       2.20270000       0.42770000
H       -0.84660000      -0.06930000      -0.10640000
H        0.03650000      -1.45980000      -1.97820000
H        2.43170000      -0.88670000      -2.80990000
H        1.97110000       0.81250000      -2.60280000
H        3.11090000      -1.17580000      -0.57410000
H        4.19580000       1.01740000      -0.54900000
H        2.69860000       1.82290000      -0.10530000
