17
Properties=species:S:1:pos:R:3 gdb_84245=T pbc="F F F"
C       -0.09470000       1.55040000      -0.06610000
C        0.02030000       0.03080000      -0.03700000
N        0.96370000      -0.39560000      -1.10560000
C        1.62520000      -1.35460000      -0.59410000
N        3.02670000      -1.08160000      -0.22820000
C        2.30450000      -1.01500000       1.15250000
C        1.18650000      -1.92050000       0.79960000
C        0.73310000      -0.57380000       1.20610000
O        0.21690000      -0.38630000       2.47340000
H        0.89680000       2.00990000      -0.02760000
H       -0.58720000       1.87910000      -0.98450000
H       -0.69100000       1.90260000       0.78400000
H       -0.98380000      -0.41570000      -0.10390000
H        3.54800000      -1.96290000      -0.15080000
H        2.90500000      -0.96100000       2.05550000
H        0.88940000      -2.91310000       1.11350000
H        0.30250000       0.54640000       2.70120000
