20
Properties=species:S:1:pos:R:3 gdb_120834=T pbc="F F F"
O       -0.27180000       1.36860000      -0.28910000
C       -0.15000000      -0.01880000      -0.01510000
C       -1.48730000      -0.67610000      -0.33920000
C       -1.47960000      -2.16230000      -0.06340000
C       -1.78390000      -2.69610000       1.31950000
C       -2.75610000      -2.92870000       0.19480000
N       -4.01740000      -2.24760000       0.23340000
C       -4.72240000      -1.96160000      -0.89780000
O       -4.32650000      -2.14850000      -2.02690000
H        0.57770000       1.78500000      -0.11760000
H        0.64710000      -0.47740000      -0.62330000
H        0.10560000      -0.19790000       1.04210000
H       -2.26800000      -0.18500000       0.25090000
H       -1.72870000      -0.49400000      -1.39210000
H       -0.74060000      -2.72210000      -0.63120000
H       -1.23150000      -3.54540000       1.70530000
H       -2.06840000      -1.96820000       2.07390000
H       -2.80650000      -3.92870000      -0.22790000
H       -4.49140000      -2.15760000       1.11860000
H       -5.71420000      -1.52360000      -0.66350000
