20
Properties=species:S:1:pos:R:3 gdb_76696=T pbc="F F F"
C        1.09840000       1.90640000      -0.15980000
C        0.56610000       0.51070000       0.08540000
C        0.52960000      -0.54350000      -1.01510000
C        1.02980000      -0.27650000      -2.41960000
C        1.47960000      -0.69590000       0.13760000
O        2.84850000      -0.55370000      -0.15870000
C        3.68650000      -0.57150000       0.96770000
C        3.55350000       0.60660000       1.84840000
N        3.45930000       1.52390000       2.54440000
H        2.02850000       1.89200000      -0.73170000
H        0.37020000       2.50940000      -0.71320000
H        1.30730000       2.41050000       0.78790000
H       -0.26790000       0.47420000       0.78220000
H       -0.32550000      -1.21410000      -0.98000000
H        1.94940000       0.31010000      -2.42520000
H        1.24060000      -1.21880000      -2.93630000
H        0.27680000       0.26250000      -3.00420000
H        1.28650000      -1.47350000       0.87710000
H        3.51730000      -1.47050000       1.58070000
H        4.71460000      -0.61060000       0.59530000
