17
Properties=species:S:1:pos:R:3 gdb_105729=T pbc="F F F"
O        0.05850000       1.37950000       0.05660000
C        0.00500000      -0.02230000       0.03670000
C       -1.45420000      -0.53810000      -0.05070000
C       -1.52550000      -2.08500000       0.19420000
N       -1.97200000      -2.13740000       1.59110000
C       -2.42150000      -0.87830000       1.91830000
N       -2.18190000       0.07550000       1.10160000
C       -2.06940000      -0.15550000      -1.31910000
C       -2.56780000       0.11350000      -2.37870000
H       -0.62900000       1.65820000       0.67680000
H        0.57440000      -0.36430000      -0.83400000
H        0.45600000      -0.46730000       0.94040000
H       -2.24150000      -2.56210000      -0.48230000
H       -0.54980000      -2.56500000       0.06860000
H       -2.47460000      -2.94660000       1.92340000
H       -2.91880000      -0.72860000       2.87300000
H       -3.00680000       0.37440000      -3.30980000
