17
Properties=species:S:1:pos:R:3 gdb_62104=T pbc="F F F"
N       -0.48530000       0.39860000       0.50490000
H        0.27050000      -0.23650000       0.75670000
H       -0.21530000       1.90550000      -0.48130000
H       -1.30230000      -0.16320000       0.29960000
C       -0.74540000       1.34720000       1.59950000
C        0.16170000       1.17430000       2.81810000
O       -0.17790000       0.02040000       3.61420000
C        0.43560000      -1.13830000       3.35970000
N        1.18330000      -1.35220000       2.35770000
C       -0.56840000       2.80130000       1.08200000
O       -0.69600000       3.76380000       1.79400000
O       -0.26610000       2.85880000      -0.21210000
H       -1.78330000       1.27500000       1.94400000
H        1.21120000       1.10770000       2.51730000
H        0.01790000       2.03100000       3.47600000
H        0.18680000      -1.85470000       4.14770000
H        1.55850000      -2.29670000       2.38150000
