21
Properties=species:S:1:pos:R:3 gdb_102212=T pbc="F F F"
C        0.93140000      -0.28730000      -1.33840000
C        0.03090000      -0.11570000      -0.11440000
C        0.66020000      -0.64330000       1.19410000
C       -0.21730000      -0.30520000       2.43710000
C       -0.35370000       1.12720000       2.67410000
C       -0.44560000       2.31320000       2.86330000
C       -0.56680000       3.74410000       3.10600000
C        0.89720000      -2.08440000       1.13780000
C        1.06210000      -3.27530000       1.10290000
H        1.17510000      -1.34090000      -1.50510000
H        0.44130000       0.09390000      -2.23940000
H        1.87360000       0.25880000      -1.21610000
H       -0.20340000       0.94340000       0.03590000
H       -0.92260000      -0.63370000      -0.27500000
H        1.62670000      -0.13970000       1.33280000
H       -1.20460000      -0.76450000       2.30150000
H        0.22450000      -0.78730000       3.31670000
H       -0.49460000       3.97370000       4.17490000
H        0.22510000       4.30300000       2.59500000
H       -1.52760000       4.13070000       2.74850000
H        1.22340000      -4.32420000       1.06860000
