23
Properties=species:S:1:pos:R:3 gdb_115302=T pbc="F F F"
C        0.07700000       1.36430000       0.13640000
O        0.00540000      -0.01310000      -0.14520000
C       -1.29780000      -0.56850000      -0.06850000
C       -1.24370000      -1.94660000      -0.72030000
C       -2.63570000      -2.58820000      -0.76930000
C       -3.39910000      -2.44800000       0.52930000
C       -4.62350000      -3.31020000       0.67380000
C       -3.00640000      -1.59730000       1.48090000
C       -1.80840000      -0.68820000       1.37590000
H        1.10370000       1.68120000      -0.06500000
H       -0.60370000       1.94690000      -0.50530000
H       -0.15790000       1.59810000       1.18520000
H       -1.99700000       0.06940000      -0.63870000
H       -0.81790000      -1.85770000      -1.72430000
H       -0.56080000      -2.57580000      -0.13650000
H       -3.23040000      -2.14580000      -1.58330000
H       -2.54530000      -3.65150000      -1.02790000
H       -4.36640000      -4.37640000       0.62300000
H       -5.13940000      -3.12890000       1.62050000
H       -5.33500000      -3.12590000      -0.14200000
H       -3.58090000      -1.53380000       2.40320000
H       -0.98310000      -1.06110000       2.00070000
H       -2.06590000       0.29960000       1.77740000
