16
Properties=species:S:1:pos:R:3 gdb_14145=T pbc="F F F"
O       -0.18760000       1.37810000      -0.07130000
C        0.00660000       0.00120000      -0.04290000
C       -0.19110000      -0.76700000       1.25010000
C       -1.22060000      -0.86340000       0.14640000
O       -2.42000000      -0.12310000       0.32760000
C       -3.49090000      -0.78260000      -0.36160000
C       -2.87300000      -2.02820000      -0.93600000
C       -1.57770000      -2.06200000      -0.63420000
H       -1.14570000       1.51240000      -0.03570000
H        0.78470000      -0.32890000      -0.72650000
H        0.43330000      -1.63140000       1.45350000
H       -0.48060000      -0.18420000       2.11830000
H       -4.30150000      -0.99390000       0.35130000
H       -3.90080000      -0.11710000      -1.13660000
H       -3.43100000      -2.75620000      -1.50960000
H       -0.85940000      -2.82410000      -0.90550000
