17
Properties=species:S:1:pos:R:3 gdb_30294=T pbc="F F F"
O       -0.19000000       1.49420000      -0.19710000
C        0.09270000       0.10880000      -0.00280000
C       -1.19930000      -0.77260000       0.16210000
C       -1.42170000      -1.60480000      -1.15130000
C       -0.08690000      -1.43760000      -1.79530000
C        0.74270000      -0.54590000      -1.18310000
N        1.94010000      -0.42590000      -1.85040000
C        1.82430000      -1.25500000      -2.86360000
N        0.60540000      -1.89970000      -2.88490000
H       -0.37840000       1.62060000      -1.13300000
H        0.69520000       0.07800000       0.91000000
H       -1.06150000      -1.46160000       1.00030000
H       -2.05030000      -0.13080000       0.39970000
H       -1.68090000      -2.64500000      -0.92510000
H       -2.23860000      -1.20500000      -1.76590000
H        2.57660000      -1.44470000      -3.61540000
H        0.30740000      -2.58050000      -3.56330000
