20
Properties=species:S:1:pos:R:3 gdb_88629=T pbc="F F F"
C       -0.38120000       1.30630000       0.13480000
N        0.04920000      -0.08400000       0.12100000
C        1.43320000      -0.34700000      -0.25580000
C        0.98750000      -0.54860000       1.15350000
C        1.49740000       0.33270000       2.25190000
C        0.73530000       0.62740000       3.54230000
C        0.02620000      -0.63320000       4.02540000
O        1.25400000      -1.40920000       3.92040000
C        1.97770000      -0.22970000       3.56030000
H        0.40150000       2.02770000       0.41870000
H       -0.73540000       1.57240000      -0.86630000
H       -1.21790000       1.42150000       0.83130000
H        1.60120000      -1.19390000      -0.91650000
H        2.07840000       0.51090000      -0.44920000
H        0.78650000      -1.56500000       1.48110000
H        2.08410000       1.19360000       1.94210000
H        0.56200000       1.63190000       3.90370000
H       -0.29560000      -0.57730000       5.07080000
H       -0.78130000      -1.04090000       3.40740000
H        2.96910000      -0.09920000       3.97940000
