21
Properties=species:S:1:pos:R:3 gdb_108418=T pbc="F F F"
C        0.34190000       1.54930000       0.08810000
C        0.14710000       0.03240000      -0.00830000
C        0.53300000      -0.52840000      -1.36930000
C       -0.33960000      -0.06950000      -2.55840000
C       -0.49420000      -1.32260000      -3.38680000
C        0.05960000      -2.39550000      -2.81970000
C        0.72400000      -2.06980000      -1.51340000
C        2.23050000      -1.72900000      -1.59450000
O        1.95050000      -0.31660000      -1.64500000
H        1.37740000       1.81160000      -0.14580000
H       -0.30820000       2.08450000      -0.61190000
H        0.11490000       1.91090000       1.09530000
H        0.75470000      -0.46370000       0.75850000
H       -0.89780000      -0.23530000       0.19680000
H       -1.31210000       0.32900000      -2.23880000
H        0.17070000       0.73440000      -3.10200000
H       -1.01330000      -1.32470000      -4.33960000
H        0.06230000      -3.39380000      -3.24430000
H        0.42420000      -2.71050000      -0.67960000
H        2.81010000      -1.99940000      -0.70130000
H        2.76190000      -2.07660000      -2.48770000
