20
Properties=species:S:1:pos:R:3 gdb_11075=T pbc="F F F"
C       -0.01270000       1.56160000      -0.00690000
C        0.12670000       0.05370000      -0.05530000
C        0.72110000      -0.76220000      -1.19440000
C       -0.03780000      -1.85600000      -1.88920000
C        1.93520000      -0.02820000      -1.78820000
C        2.62740000      -0.04120000      -0.38560000
C        1.38720000      -0.73730000       0.18350000
O        1.44700000      -1.77640000       1.10160000
H        0.86400000       2.07480000      -0.41070000
H       -0.88290000       1.89430000      -0.58400000
H       -0.14930000       1.91040000       1.02330000
H       -0.72670000      -0.47270000       0.37180000
H       -0.70100000      -1.45740000      -2.66690000
H        0.64390000      -2.56760000      -2.36960000
H       -0.65540000      -2.41540000      -1.17930000
H        2.47160000      -0.63740000      -2.52020000
H        1.74390000       0.95350000      -2.23290000
H        3.49570000      -0.70350000      -0.36700000
H        2.91090000       0.92250000       0.05160000
H        1.29610000      -1.41570000       1.98180000
