12
Properties=species:S:1:pos:R:3 gdb_8988=T pbc="F F F"
N        0.06410000       1.09300000      -0.20680000
C       -0.19620000      -0.09990000       0.08870000
O       -0.46520000      -0.98610000      -0.90890000
C       -0.78940000      -2.29160000      -0.52660000
C       -2.19730000      -2.40720000       0.04940000
O       -2.89930000      -1.47520000       0.33260000
C       -2.63390000      -3.80240000       0.26650000
N       -2.94120000      -4.90520000       0.42930000
H        0.25930000       1.63210000       0.63400000
H       -0.21930000      -0.54790000       1.09030000
H       -0.71830000      -2.92180000      -1.41950000
H       -0.08820000      -2.70960000       0.21440000
