18
Properties=species:S:1:pos:R:3 gdb_50320=T pbc="F F F"
O       -0.11480000      -0.07780000      -0.46200000
C       -0.07250000       1.11250000      -0.24270000
N        1.05210000       1.80820000       0.12770000
C        1.02250000       3.26840000       0.22710000
C        1.97430000       3.80300000       1.28080000
C        2.14910000       3.14800000       2.61820000
C        3.22820000       3.00090000       1.54570000
C        3.33490000       1.70050000       0.84410000
C        2.28860000       1.14750000       0.22370000
H       -0.95680000       1.77450000      -0.31370000
H        1.30680000       3.70720000      -0.74040000
H       -0.00900000       3.57250000       0.43380000
H        2.07790000       4.88360000       1.24630000
H        2.35720000       3.78470000       3.47120000
H        1.56690000       2.26140000       2.84380000
H        4.15400000       3.54250000       1.70700000
H        4.27330000       1.15980000       0.87930000
H        2.29330000       0.16430000      -0.22730000
