17
Properties=species:S:1:pos:R:3 gdb_5237=T pbc="F F F"
C       -0.70020000       1.41930000      -0.52530000
O       -0.66340000       0.01850000      -0.66430000
C       -0.73510000      -0.65910000       0.58110000
C       -0.78450000      -2.12600000       0.32490000
C       -0.24870000      -3.19840000       1.00300000
C       -0.67940000      -4.38260000       0.34080000
C       -1.45810000      -3.99570000      -0.72510000
N       -1.52790000      -2.62630000      -0.71450000
H       -0.65950000       1.84910000      -1.52900000
H       -1.62380000       1.75730000      -0.02860000
H        0.15680000       1.79370000       0.05610000
H        0.13410000      -0.42180000       1.21450000
H       -1.63230000      -0.31170000       1.12660000
H        0.37600000      -3.13770000       1.88150000
H       -0.44020000      -5.39890000       0.61390000
H       -1.95360000      -4.57210000      -1.48960000
H       -1.94170000      -2.04360000      -1.42180000
