16
Properties=species:S:1:pos:R:3 gdb_67513=T pbc="F F F"
O       -0.02010000       1.45410000      -0.22300000
C        0.11340000       0.08830000      -0.10030000
C       -0.23690000      -0.90370000      -1.16870000
C        0.67590000      -1.82640000      -1.91060000
O        0.32000000      -2.48100000      -2.86000000
C       -0.93290000      -0.91890000       0.23650000
N       -0.21700000      -1.42400000       1.45370000
C        1.08090000      -2.00470000       1.08870000
C        0.93340000      -0.52770000       1.07070000
H        0.64860000       1.77500000      -0.83900000
H       -0.99870000      -0.51390000      -1.84330000
H        1.73890000      -1.82420000      -1.58710000
H       -2.01300000      -0.86650000       0.26490000
H        1.60140000      -2.41860000       1.94940000
H        1.16730000      -2.60930000       0.19550000
H        1.38840000       0.11680000       1.81570000
