17
Properties=species:S:1:pos:R:3 gdb_126781=T pbc="F F F"
C        0.02440000       1.55800000       0.14750000
C       -0.05130000       0.04100000      -0.03650000
N       -1.41090000      -0.45780000      -0.05300000
N       -2.12560000      -0.56770000       1.12740000
C       -3.26230000      -1.06330000       0.69100000
O       -4.27000000      -1.34500000       1.53040000
N       -3.36710000      -1.26800000      -0.65110000
C       -2.17720000      -0.86780000      -1.08150000
N       -1.74040000      -0.93550000      -2.39330000
H        1.06820000       1.88220000       0.19880000
H       -0.45900000       2.08430000      -0.68180000
H       -0.47750000       1.84620000       1.07420000
H        0.42300000      -0.27370000      -0.97130000
H        0.46980000      -0.46600000       0.78100000
H       -4.98720000      -1.69060000       0.98630000
H       -2.50420000      -1.17360000      -3.01150000
H       -1.25010000      -0.11480000      -2.72200000
