13
Properties=species:S:1:pos:R:3 gdb_25451=T pbc="F F F"
O       -0.09110000      -0.03550000      -0.00110000
C       -0.04960000       1.16170000       0.00810000
N        1.14740000       1.89340000       0.00070000
C        2.43980000       1.37330000      -0.01810000
N        3.33850000       2.30690000      -0.02050000
C        2.63260000       3.50910000      -0.00270000
C        3.26510000       4.83400000       0.00110000
O        4.45290000       5.04110000      -0.01030000
C        1.28400000       3.26790000       0.01050000
H       -0.93510000       1.82090000       0.02360000
H        2.60290000       0.30690000      -0.02870000
H        2.52780000       5.66930000       0.01650000
H        0.42980000       3.92550000       0.02550000
