19
Properties=species:S:1:pos:R:3 gdb_72583=T pbc="F F F"
C        0.10150000       1.58970000      -0.12530000
C        0.05350000       0.10060000       0.04270000
C        0.57280000      -0.87390000      -1.03460000
C        1.26060000      -1.72530000       0.07620000
C        0.76160000      -0.74030000       1.17580000
N        1.73960000      -0.26000000       2.10450000
C       -0.65990000      -1.03340000       1.61280000
N       -1.16740000      -1.60490000       2.60950000
O       -1.24790000      -0.37620000       0.55260000
H        1.12310000       1.90580000      -0.35610000
H       -0.55320000       1.91360000      -0.94170000
H       -0.21540000       2.09530000       0.79160000
H       -0.21910000      -1.36420000      -1.60340000
H        1.28140000      -0.41820000      -1.73010000
H        0.93430000      -2.76080000       0.18810000
H        2.35080000      -1.70210000       0.00460000
H        1.30120000       0.04000000       2.96960000
H        2.39190000      -0.99830000       2.34650000
H       -2.18810000      -1.56730000       2.58310000
