17
Properties=species:S:1:pos:R:3 gdb_76995=T pbc="F F F"
C       -0.32080000       1.53790000       0.04620000
C        0.07730000       0.06200000       0.00830000
C        0.80390000      -0.49220000      -1.25140000
C        1.59210000       0.57940000      -2.00510000
O        1.50290000       0.78320000      -3.18550000
C        1.78600000      -1.48960000      -0.67120000
C        1.91140000      -1.39120000       0.65740000
C        0.97850000      -0.36460000       1.18330000
O        0.91030000       0.06060000       2.31220000
H        0.54100000       2.20210000      -0.06470000
H       -1.03990000       1.77790000      -0.74200000
H       -0.77610000       1.75770000       1.01490000
H       -0.83410000      -0.54110000       0.12180000
H        0.12650000      -0.94930000      -1.97810000
H        2.29440000       1.15820000      -1.36420000
H        2.34660000      -2.16250000      -1.31100000
H        2.58090000      -1.95520000       1.29400000
