16
Properties=species:S:1:pos:R:3 gdb_25612=T pbc="F F F"
O        0.40840000       0.29800000       0.81310000
C        0.58240000       1.28980000       0.17040000
O        0.46870000       2.52500000       0.69300000
C        0.79450000       3.62490000      -0.17480000
C        2.25750000       3.94120000      -0.14630000
C        3.15650000       3.54610000       0.82000000
N        4.38010000       4.06760000       0.48900000
C        4.28250000       4.79090000      -0.67090000
C        2.97540000       4.73190000      -1.09200000
H        0.83640000       1.30080000      -0.90760000
H        0.45890000       3.40470000      -1.19750000
H        0.18410000       4.45580000       0.19290000
H        3.01860000       2.94140000       1.70060000
H        5.22700000       3.91950000       1.00900000
H        5.14410000       5.27610000      -1.10010000
H        2.57430000       5.20030000      -1.97820000
