18
Properties=species:S:1:pos:R:3 gdb_65428=T pbc="F F F"
C        0.76160000       1.18660000       0.01180000
C       -0.04470000      -0.07520000       0.21860000
C        0.62100000      -1.38940000       0.54140000
N       -0.21040000      -0.73980000       1.52780000
C        0.36240000      -0.15900000       2.75240000
C        1.81930000      -0.04230000       2.84740000
C        3.01680000       0.01560000       2.94370000
C       -1.30810000      -0.16800000      -0.58380000
O       -1.61550000       0.59810000      -1.46150000
H        1.72220000       1.14830000       0.52520000
H        0.93240000       1.33290000      -1.05780000
H        0.20710000       2.06160000       0.36720000
H        0.23770000      -2.32470000       0.13920000
H        1.70120000      -1.34580000       0.66260000
H       -0.09960000       0.82320000       2.90410000
H        0.01770000      -0.78980000       3.58110000
H        4.07320000       0.08170000       3.03510000
H       -1.95290000      -1.02660000      -0.29240000
