17
Properties=species:S:1:pos:R:3 gdb_33010=T pbc="F F F"
C        0.02060000       1.51310000       0.07870000
C       -0.00480000      -0.00030000      -0.01550000
O        0.68250000      -0.50990000       1.14340000
C        0.78450000      -1.83550000       1.27580000
N        0.26200000      -2.64000000       0.35620000
C        0.41110000      -3.95240000       0.56960000
N        1.01870000      -4.54240000       1.59060000
C        1.53790000      -3.70400000       2.50570000
C        1.45390000      -2.33120000       2.40540000
H        1.04840000       1.88640000       0.09250000
H       -0.49240000       1.94520000      -0.78550000
H       -0.48300000       1.85650000       0.98660000
H       -1.02610000      -0.39370000      -0.02870000
H        0.49590000      -0.36380000      -0.91830000
H       -0.01870000      -4.60630000      -0.18630000
H        2.04100000      -4.16580000       3.35190000
H        1.87320000      -1.66060000       3.14420000
