13
Properties=species:S:1:pos:R:3 gdb_47286=T pbc="F F F"
O       -0.07350000       1.16520000       1.63450000
C       -0.13870000       1.48390000       0.48010000
O       -1.34280000       1.82690000      -0.05770000
C       -1.45760000       1.98070000      -1.45420000
O       -0.93600000       3.20600000      -1.91620000
C        0.41290000       3.35390000      -2.04010000
O        0.85510000       4.31340000      -2.60790000
C        1.30650000       2.32300000      -1.44110000
C        1.07480000       1.53760000      -0.38260000
H       -0.99030000       1.13920000      -1.97630000
H       -2.52610000       2.01950000      -1.65930000
H        2.29520000       2.33460000      -1.88820000
H        1.87940000       0.92520000       0.01110000
