16
Properties=species:S:1:pos:R:3 gdb_14612=T pbc="F F F"
O       -0.56090000       0.71220000       0.75640000
C        0.08940000       0.98010000      -0.21930000
C        1.35640000       1.80700000      -0.21540000
C        1.26790000       2.99470000      -1.18040000
N        2.56900000       3.64300000      -1.30810000
C        2.53180000       4.80400000      -2.19070000
C        3.84330000       5.45380000      -2.25980000
N        4.87040000       5.98010000      -2.29700000
H       -0.21510000       0.61600000      -1.22910000
H        1.55650000       2.13370000       0.80960000
H        2.18460000       1.16390000      -0.54320000
H        0.97180000       2.63730000      -2.17610000
H        0.47290000       3.68650000      -0.84610000
H        2.90570000       3.92730000      -0.39320000
H        2.25780000       4.47090000      -3.19970000
H        1.78750000       5.56860000      -1.90170000
