19
Properties=species:S:1:pos:R:3 gdb_108653=T pbc="F F F"
C       -0.25410000       1.61420000      -0.07200000
C        0.03230000       0.10560000       0.03840000
C        0.78240000      -0.42710000      -1.14260000
C        2.04060000      -0.87060000      -1.27060000
C        3.12920000      -0.98990000      -0.25720000
C        2.25620000      -1.28210000      -2.70350000
O        1.02290000      -1.03630000      -3.36960000
C        0.11980000      -0.52860000      -2.46930000
O       -1.00460000      -0.24160000      -2.77820000
H        0.67590000       2.19010000      -0.11310000
H       -0.83020000       1.82500000      -0.97610000
H       -0.83040000       1.95940000       0.79140000
H        0.58390000      -0.10620000       0.96020000
H       -0.92310000      -0.42800000       0.10730000
H        3.48530000      -2.02480000      -0.18300000
H        3.99610000      -0.37970000      -0.53950000
H        2.79980000      -0.67150000       0.73400000
H        3.05110000      -0.70230000      -3.19140000
H        2.51150000      -2.34580000      -2.79990000
