21
Properties=species:S:1:pos:R:3 gdb_86787=T pbc="F F F"
C       -0.19850000       1.54530000      -0.12810000
C       -0.05750000       0.03110000      -0.02530000
C        1.11350000      -0.56100000      -0.85230000
N        1.92780000      -0.59870000       0.37890000
C        2.82710000      -1.72230000       0.53300000
C        3.60220000      -1.64940000       1.77800000
N        4.20540000      -1.61090000       2.76240000
C        0.70630000      -0.51860000       1.22190000
C        0.81600000       0.29330000       2.50070000
H        0.76720000       2.04490000      -0.00630000
H       -0.59810000       1.82410000      -1.10900000
H       -0.88190000       1.93750000       0.63190000
H       -1.02250000      -0.45000000      -0.19870000
H        0.88100000      -1.56240000      -1.25020000
H        1.53400000       0.05240000      -1.65710000
H        2.30670000      -2.70080000       0.51630000
H        3.53410000      -1.72680000      -0.30570000
H        0.32860000      -1.52930000       1.45990000
H        1.19640000       1.29820000       2.30220000
H       -0.16480000       0.37840000       2.98130000
H        1.49540000      -0.18960000       3.20910000
