16
Properties=species:S:1:pos:R:3 gdb_54965=T pbc="F F F"
N        0.06870000       1.22140000      -0.03030000
H       -0.54290000       1.05490000      -0.82440000
H        1.14710000       0.02890000       0.73380000
H        0.65160000       2.02140000      -0.26220000
C       -0.71960000       1.50680000       1.16160000
C       -1.35890000       0.30710000       1.81580000
C       -0.17420000       0.96010000       2.49220000
C        1.13540000       0.22060000       2.62790000
O        1.67040000       0.10680000       3.69960000
O        1.64070000      -0.32700000       1.51440000
C       -1.40730000       2.77160000       1.19450000
C       -1.96000000       3.83990000       1.19370000
H       -2.33530000       0.43350000       2.26620000
H       -1.18690000      -0.64940000       1.33440000
H       -0.39000000       1.56220000       3.36510000
H       -2.45230000       4.78120000       1.19990000
