16
Properties=species:S:1:pos:R:3 gdb_31292=T pbc="F F F"
C        0.05980000       1.57330000       0.33010000
C       -0.00140000       0.10440000      -0.12350000
C       -1.38470000      -0.46880000      -0.06860000
C       -2.16300000      -0.85760000      -1.12970000
O       -3.37730000      -1.32310000      -0.70150000
C       -3.36700000      -1.22760000       0.64560000
C       -2.18770000      -0.71610000       1.09050000
C       -1.90900000      -0.85120000      -2.51690000
N       -1.66580000      -0.83120000      -3.65020000
H        1.08760000       1.94460000       0.28560000
H       -0.56040000       2.20620000      -0.31120000
H       -0.29610000       1.68720000       1.35870000
H        0.38220000       0.01780000      -1.14500000
H        0.66060000      -0.49790000       0.51070000
H       -4.26350000      -1.56210000       1.14190000
H       -1.91340000      -0.53820000       2.11870000
