21
Properties=species:S:1:pos:R:3 gdb_114870=T pbc="F F F"
C        0.65610000       1.09610000      -0.25990000
O        0.65070000      -0.30570000      -0.06200000
C        0.53530000      -0.68160000       1.29040000
C        0.47570000      -2.21240000       1.35880000
C        1.94470000      -2.61910000       1.50850000
C        2.84470000      -2.56620000       0.23540000
C        3.60560000      -1.34180000       0.82380000
C        2.64000000      -1.32930000       2.04080000
O        1.65700000      -0.29620000       2.05950000
H        1.50710000       1.57210000       0.24110000
H        0.72420000       1.26850000      -1.33630000
H       -0.27150000       1.55400000       0.11670000
H       -0.32980000      -0.17090000       1.73790000
H       -0.09860000      -2.51020000       2.24110000
H       -0.00950000      -2.62540000       0.47220000
H        2.07190000      -3.51700000       2.11480000
H        3.45670000      -3.45630000       0.07370000
H        2.29270000      -2.34720000      -0.67970000
H        4.64130000      -1.55400000       1.10230000
H        3.58280000      -0.42970000       0.22550000
H        3.10800000      -1.34460000       3.02800000
