18
Properties=species:S:1:pos:R:3 gdb_51874=T pbc="F F F"
N       -0.10320000       1.27520000      -0.09160000
C       -0.04780000       0.01910000      -0.02430000
O       -1.19170000      -0.70580000      -0.10710000
C       -1.04460000      -2.09660000      -0.07460000
C       -2.42660000      -2.71170000       0.12690000
O       -2.34470000      -4.12280000       0.03850000
C       -1.80260000      -4.53270000      -1.20840000
C       -0.41920000      -3.92510000      -1.40450000
O       -0.49160000      -2.50550000      -1.30850000
H        0.83080000       1.66930000       0.00070000
H        0.84920000      -0.59840000       0.10390000
H       -0.37010000      -2.40260000       0.74640000
H       -2.81560000      -2.47010000       1.11870000
H       -3.10190000      -2.29740000      -0.63720000
H       -1.75220000      -5.62510000      -1.18700000
H       -2.46310000      -4.22250000      -2.03360000
H        0.27150000      -4.32380000      -0.64430000
H       -0.01890000      -4.15020000      -2.39660000
