19
Properties=species:S:1:pos:R:3 gdb_89810=T pbc="F F F"
O       -0.01720000       1.41730000      -0.04300000
C        0.01210000       0.00520000      -0.08720000
C        0.78550000      -0.64420000       1.09840000
C        0.07930000      -1.96980000       1.36900000
C        0.76710000      -3.27760000       1.22020000
N        0.34680000      -2.79310000       2.55050000
C       -1.33810000      -1.78120000       0.90860000
N       -1.92580000      -0.49120000       1.35050000
C       -1.37250000      -0.62800000      -0.01750000
H       -0.56780000       1.64410000       0.71730000
H        0.48600000      -0.25240000      -1.04030000
H        1.85140000      -0.75940000       0.88730000
H        0.68350000       0.01170000       1.96910000
H        0.22550000      -4.15030000       0.86280000
H        1.82380000      -3.26770000       0.96450000
H        1.14820000      -2.42340000       3.05700000
H       -1.98860000      -2.64200000       0.79770000
H       -2.93930000      -0.56410000       1.31180000
H       -2.03960000      -0.57150000      -0.87100000
