18
Properties=species:S:1:pos:R:3 gdb_76842=T pbc="F F F"
C       -0.17130000       1.58310000       0.06340000
C        0.01280000       0.07220000       0.02400000
C        1.11230000      -0.52790000      -0.92760000
O        2.00570000       0.35650000      -1.56290000
C        1.77960000      -1.23850000       0.27790000
N        2.77390000      -0.43400000       0.98460000
C        1.85990000       0.19110000       1.82030000
O        1.97490000       1.07600000       2.62420000
C        0.69770000      -0.64070000       1.24050000
H        0.77650000       2.10380000       0.21680000
H       -0.61050000       1.94420000      -0.87390000
H       -0.84490000       1.87080000       0.87640000
H       -0.94730000      -0.41050000      -0.18310000
H        0.68550000      -1.24530000      -1.64170000
H        1.52990000       0.83270000      -2.25070000
H        2.01980000      -2.29830000       0.19100000
H        3.62200000      -0.03470000       0.60440000
H        0.08010000      -1.22190000       1.92180000
