16
Properties=species:S:1:pos:R:3 gdb_46229=T pbc="F F F"
O       -0.00120000       0.03010000      -0.18710000
C       -0.02860000       1.20750000       0.00950000
C       -1.13390000       2.21820000       0.39390000
C       -0.03100000       3.31150000       0.55780000
C        1.00900000       2.31880000       0.00370000
N        2.42820000       2.17720000       0.28270000
C        2.02810000       2.59210000      -1.07480000
C        2.26860000       1.68370000      -2.15880000
C        2.46010000       0.95320000      -3.09340000
H       -1.83770000       2.40170000      -0.42280000
H       -1.69950000       1.95480000       1.29060000
H       -0.17500000       4.22390000      -0.02380000
H        0.15160000       3.58000000       1.60200000
H        2.76090000       2.98520000       0.80590000
H        2.13670000       3.64610000      -1.32700000
H        2.62700000       0.28920000      -3.90520000
