15
Properties=species:S:1:pos:R:3 gdb_124344=T pbc="F F F"
C       -0.13930000       1.50700000       0.00990000
C        0.07340000       0.00830000       0.00150000
O        1.15210000      -0.52490000      -0.00870000
N       -1.11870000      -0.74790000       0.00880000
N       -2.35570000      -0.10230000       0.02170000
C       -3.22430000      -1.05260000       0.02530000
N       -2.65100000      -2.29560000       0.01550000
C       -1.25240000      -2.15490000       0.00470000
N       -0.32540000      -3.02050000      -0.00590000
H        0.84350000       1.97720000       0.00440000
H       -0.71710000       1.82530000      -0.86150000
H       -0.70360000       1.81760000       0.89280000
H       -4.29150000      -0.89170000       0.03480000
H       -3.12510000      -3.18110000       0.01770000
H       -0.70740000      -3.96440000      -0.00640000
