18
Properties=species:S:1:pos:R:3 gdb_107222=T pbc="F F F"
O        0.05180000       1.34480000      -0.36230000
C        0.05980000       0.02340000       0.15560000
C       -1.33260000      -0.54350000       0.23830000
C       -2.36810000       0.05090000       1.19850000
C       -3.35900000      -1.07870000       1.48450000
N       -4.14280000      -1.53070000       0.32170000
C       -2.94600000      -2.29540000       0.72950000
C       -1.69840000      -1.94390000      -0.05680000
O       -1.88120000      -0.92330000      -1.03970000
H       -0.36800000       1.29830000      -1.22900000
H        0.68330000      -0.64670000      -0.45510000
H        0.50830000       0.09050000       1.15270000
H       -1.87160000       0.35550000       2.12620000
H       -2.85190000       0.93350000       0.77200000
H       -3.80980000      -1.14290000       2.47010000
H       -4.97060000      -2.02140000       0.65360000
H       -3.05370000      -3.29990000       1.12330000
H       -0.97450000      -2.71670000      -0.30390000
