16
Properties=species:S:1:pos:R:3 gdb_38543=T pbc="F F F"
C       -0.04690000       1.42540000       0.18260000
C        1.27210000       0.74140000      -0.02360000
O        1.65700000       0.04970000       1.21290000
C        0.58800000      -0.81060000       1.02110000
N        0.37720000      -1.96770000       1.45200000
C       -0.72590000      -2.61510000       0.71320000
C       -1.54830000      -1.70720000      -0.23150000
O       -0.73660000      -0.79850000      -1.01170000
C       -0.00770000      -0.06790000      -0.10350000
H       -0.31100000       1.82590000       1.15790000
H       -0.38330000       2.00650000      -0.67250000
H        2.06560000       0.98420000      -0.71610000
H       -0.27750000      -3.43740000       0.14220000
H       -1.41860000      -3.07360000       1.42850000
H       -2.09580000      -2.31510000      -0.95470000
H       -2.27290000      -1.11780000       0.34750000
