18
Properties=species:S:1:pos:R:3 gdb_27755=T pbc="F F F"
C        0.00580000       1.52330000      -0.01320000
C       -0.03130000       0.02620000       0.00240000
C       -0.10310000      -0.84300000      -1.05380000
C        0.18030000      -1.27650000      -2.48480000
C        0.31370000      -2.72400000      -1.87910000
N       -0.10880000      -2.14500000      -0.58720000
C        0.01400000      -2.14580000       0.76730000
O        0.05080000      -3.32400000       1.44210000
C        0.00360000      -0.82380000       1.17390000
H        0.87040000       1.91300000       0.53730000
H        0.06580000       1.90350000      -1.03740000
H       -0.88830000       1.96350000       0.44590000
H       -0.63620000      -1.15900000      -3.20330000
H        1.10100000      -0.89240000      -2.93160000
H       -0.36430000      -3.48980000      -2.26410000
H        1.33740000      -3.10830000      -1.86670000
H        0.10880000      -3.12780000       2.38210000
H       -0.03500000      -0.48680000       2.20070000
