16
Properties=species:S:1:pos:R:3 gdb_99251=T pbc="F F F"
N       -0.11900000       1.02900000       0.21780000
C       -0.31650000      -0.31430000       0.33830000
O       -0.21510000      -0.95940000       1.35540000
O       -0.59220000      -0.85260000      -0.88370000
C       -0.88850000      -2.23610000      -0.84360000
C       -2.27090000      -2.50730000      -0.23800000
O       -3.09910000      -1.64530000      -0.11820000
C       -2.48630000      -3.95230000       0.19000000
O       -3.84770000      -4.17870000       0.43630000
H       -0.11670000       1.54800000       1.07940000
H       -0.47990000       1.48950000      -0.60120000
H       -0.88660000      -2.57390000      -1.88540000
H       -0.11910000      -2.78660000      -0.29270000
H       -2.07540000      -4.61630000      -0.59200000
H       -1.85660000      -4.09810000       1.08530000
H       -3.93910000      -5.04920000       0.83410000
