20
Properties=species:S:1:pos:R:3 gdb_98358=T pbc="F F F"
C        0.43760000       1.43780000       0.17910000
N        0.42430000      -0.00590000       0.03680000
C        0.08390000      -0.62650000      -1.12920000
O       -0.22820000      -0.02290000      -2.14110000
C        0.13720000      -2.15800000      -1.09610000
C       -1.21820000      -2.73090000      -1.53570000
C        1.28060000      -2.62660000      -2.02660000
C        1.52380000      -4.11540000      -1.92360000
O        1.54640000      -4.88250000      -2.85010000
H        0.17080000       1.85990000      -0.79030000
H       -0.28920000       1.77270000       0.92750000
H        1.43040000       1.79950000       0.46810000
H        0.64850000      -0.57240000       0.83740000
H        0.36100000      -2.49760000      -0.07540000
H       -1.18380000      -3.82250000      -1.60100000
H       -2.00860000      -2.45680000      -0.83060000
H       -1.48470000      -2.33090000      -2.51710000
H        1.06770000      -2.35720000      -3.06350000
H        2.21470000      -2.12820000      -1.72850000
H        1.69620000      -4.47600000      -0.88000000
