23
Properties=species:S:1:pos:R:3 gdb_96116=T pbc="F F F"
C       -0.09640000       1.55390000       0.00270000
C        0.04000000       0.02560000      -0.00290000
C        0.67800000      -0.49280000      -1.30310000
C        0.87440000      -2.01170000      -1.25770000
C        1.87470000      -2.42420000      -0.16580000
C        1.64800000      -1.69950000       1.16030000
C        2.25610000      -0.32460000       1.39530000
C        0.76540000      -0.48380000       1.23810000
O       -0.00060000      -0.41040000       2.41770000
H        0.88600000       2.03800000      -0.03120000
H       -0.67170000       1.89980000      -0.86240000
H       -0.61630000       1.90830000       0.89980000
H       -0.96970000      -0.40490000       0.05750000
H        0.03530000      -0.21510000      -2.14660000
H        1.64210000       0.00540000      -1.47890000
H       -0.09690000      -2.48460000      -1.06150000
H        1.21330000      -2.38540000      -2.23030000
H        1.81160000      -3.50520000      -0.00360000
H        2.89610000      -2.23100000      -0.51830000
H        1.60300000      -2.32710000       2.04410000
H        2.62530000      -0.10060000       2.39020000
H        2.82990000       0.11940000       0.58700000
H       -0.03090000       0.51230000       2.69270000
