16
Properties=species:S:1:pos:R:3 gdb_51436=T pbc="F F F"
N       -0.09940000       1.25100000       0.02970000
C       -0.15180000       0.01020000      -0.18750000
O       -1.07850000      -0.73820000       0.46010000
C       -1.06910000      -2.12340000       0.16900000
C       -2.24620000      -2.90360000       0.73770000
C       -3.50950000      -2.42570000       0.12230000
C       -2.64870000      -3.38990000      -0.68990000
C       -1.49650000      -2.62580000      -1.25230000
O       -0.97120000      -2.53810000      -2.32580000
H        0.64250000       1.66820000      -0.52890000
H        0.48010000      -0.56770000      -0.87190000
H       -0.10030000      -2.57180000       0.42790000
H       -2.21130000      -3.50490000       1.63550000
H       -4.42240000      -2.87330000       0.49990000
H       -3.60860000      -1.39000000      -0.18310000
H       -3.02530000      -4.34880000      -1.02080000
