18
Properties=species:S:1:pos:R:3 gdb_56514=T pbc="F F F"
C       -0.08930000       1.57210000       0.08110000
C       -0.00170000       0.03250000       0.02640000
C        0.74410000      -0.51340000       1.26390000
C       -1.36120000      -0.53250000       0.01490000
N       -2.42270000      -0.98700000       0.05490000
C        0.70420000      -0.44720000      -1.28900000
N       -0.00570000       0.01730000      -2.47610000
C        2.12990000      -0.05240000      -1.27960000
N        3.23430000       0.28810000      -1.31960000
H        0.91600000       2.00270000       0.04910000
H       -0.67760000       1.96600000      -0.75060000
H       -0.56960000       1.88810000       1.01000000
H        0.21080000      -0.23580000       2.17600000
H        0.81830000      -1.60410000       1.23300000
H        1.75280000      -0.09520000       1.31000000
H        0.66950000      -1.54190000      -1.29010000
H        0.22290000       0.98450000      -2.68080000
H        0.26580000      -0.52850000      -3.28670000
