21
Properties=species:S:1:pos:R:3 gdb_61885=T pbc="F F F"
C       -0.08390000       1.50770000       0.05320000
C        0.03100000      -0.01540000      -0.05890000
C        0.92380000      -0.41250000      -1.24100000
N        1.17160000      -1.84990000      -1.25830000
C        0.23290000      -2.66960000      -2.02080000
C        1.61300000      -2.42410000      -2.52330000
N        0.59260000      -0.61630000       1.15100000
C       -0.04430000      -0.60450000       2.34970000
O       -1.04790000       0.02770000       2.61310000
H        0.89980000       1.95670000       0.22600000
H       -0.49800000       1.92420000      -0.87110000
H       -0.73940000       1.77050000       0.88340000
H       -0.97550000      -0.42830000      -0.22020000
H        0.45650000      -0.05260000      -2.17330000
H        1.89460000       0.09020000      -1.14550000
H       -0.03170000      -3.62510000      -1.57820000
H       -0.58220000      -2.16210000      -2.53400000
H        1.72080000      -1.75360000      -3.37400000
H        2.37210000      -3.19760000      -2.45330000
H        1.26290000      -1.35520000       0.98520000
H        0.47520000      -1.24120000       3.09510000
