19
Properties=species:S:1:pos:R:3 gdb_95484=T pbc="F F F"
C       -0.45680000       1.31450000       0.06690000
C        0.06420000      -0.11320000      -0.03420000
C        0.92790000      -0.34970000      -1.27780000
C        0.92410000      -1.80800000      -1.73630000
C        1.12940000      -2.84100000      -0.67180000
C        1.26650000      -2.70910000       0.65190000
C        1.34600000      -1.51280000       1.53360000
O        1.87820000      -1.59810000       2.61350000
O        0.82850000      -0.31680000       1.16910000
H        0.37290000       2.02750000       0.03850000
H       -1.13220000       1.53170000      -0.76560000
H       -0.99830000       1.45660000       1.00510000
H       -0.78270000      -0.81300000      -0.03010000
H        0.56830000       0.27920000      -2.09890000
H        1.94480000      -0.01380000      -1.04530000
H       -0.03290000      -2.03580000      -2.23060000
H        1.68080000      -1.95930000      -2.51830000
H        1.17060000      -3.86030000      -1.05460000
H        1.44300000      -3.60520000       1.23860000
