13
Properties=species:S:1:pos:R:3 gdb_133151=T pbc="F F F"
C       -0.02130000       1.55090000       0.00860000
C        0.00910000       0.05240000      -0.03050000
C       -0.06490000      -0.70660000      -1.17860000
F       -0.17200000      -0.12170000      -2.36760000
C       -0.02750000      -2.10110000      -1.09960000
N        0.07820000      -2.74460000       0.05390000
N        0.15250000      -2.04550000       1.18980000
C        0.11810000      -0.73580000       1.12480000
F        0.19590000      -0.09770000       2.28670000
H        0.88860000       1.94350000       0.47280000
H       -0.10870000       1.96260000      -0.99720000
H       -0.86510000       1.90440000       0.60920000
H       -0.08510000      -2.70620000      -1.99810000
