17
Properties=species:S:1:pos:R:3 gdb_70658=T pbc="F F F"
O        0.35180000       1.22140000      -0.33940000
C        0.00400000      -0.09280000      -0.06000000
C       -0.76720000      -0.92890000      -1.06220000
C       -1.40490000      -0.47850000       0.24200000
O       -1.45990000      -1.37200000       1.32210000
C       -0.15720000      -1.91960000       1.50100000
C        0.84570000      -0.85310000       0.97660000
C        2.09090000      -1.41180000       0.47480000
C        3.11470000      -1.86900000       0.03990000
H        1.09630000       1.20580000      -0.95230000
H       -1.10240000      -0.40130000      -1.94870000
H       -0.50880000      -1.97070000      -1.21840000
H       -2.22770000       0.22550000       0.23510000
H       -0.02310000      -2.14240000       2.56170000
H       -0.04330000      -2.85250000       0.93410000
H        1.06350000      -0.12940000       1.77190000
H        4.02210000      -2.27570000      -0.33270000
