23
Properties=species:S:1:pos:R:3 gdb_89479=T pbc="F F F"
C       -0.20390000       1.55780000      -0.00430000
C        0.03870000       0.04900000       0.00760000
C        0.75130000      -0.51290000      -1.26840000
C        1.88990000      -1.37880000      -0.67750000
C        2.56440000      -2.34850000      -1.62140000
C        1.25220000      -1.91610000       0.61800000
C        0.94460000      -0.50020000       1.14550000
C        2.34860000       0.11160000       1.03470000
O        2.88730000      -0.46260000      -0.16760000
H        0.71920000       2.12050000      -0.17690000
H       -0.90150000       1.82910000      -0.80380000
H       -0.63620000       1.90190000       0.94220000
H       -0.93590000      -0.44290000       0.11260000
H        0.07210000      -1.10110000      -1.89400000
H        1.17830000       0.28100000      -1.88830000
H        3.00910000      -1.81530000      -2.46740000
H        3.36160000      -2.89350000      -1.10780000
H        1.84180000      -3.07080000      -2.01350000
H        0.35650000      -2.51960000       0.44600000
H        1.96260000      -2.47780000       1.23110000
H        0.50740000      -0.42410000       2.14310000
H        2.34900000       1.20440000       0.95730000
H        2.97990000      -0.16560000       1.89060000
