20
Properties=species:S:1:pos:R:3 gdb_17237=T pbc="F F F"
C        0.06030000       1.47300000      -0.23990000
C       -0.07750000      -0.00160000       0.16390000
C       -1.49580000      -0.49540000       0.11700000
C       -2.65270000      -0.10080000       1.04070000
C       -3.40620000      -1.32500000       0.45540000
C       -3.65400000      -0.93720000      -1.02890000
C       -2.13730000      -1.01330000      -1.18680000
C       -2.00250000      -1.91640000       0.02030000
H        1.10250000       1.80270000      -0.18570000
H       -0.29430000       1.63480000      -1.26290000
H       -0.52850000       2.11860000       0.42030000
H        0.54240000      -0.62320000      -0.49550000
H        0.32340000      -0.14120000       1.17700000
H       -2.38060000      -0.25410000       2.09000000
H       -3.12310000       0.88370000       0.92420000
H       -4.17090000      -1.83890000       1.03430000
H       -4.15110000      -1.74070000      -1.58020000
H       -4.16550000       0.01350000      -1.22370000
H       -1.55970000      -1.04860000      -2.10260000
H       -1.51480000      -2.87090000       0.15870000
