25
Properties=species:S:1:pos:R:3 gdb_62786=T pbc="F F F"
C        0.16540000       1.65420000      -0.38380000
C        0.22690000       0.14640000      -0.20490000
C       -1.01940000      -0.54110000      -0.75090000
C        1.48430000      -0.66390000      -0.39060000
C        2.72830000       0.03440000       0.17580000
C        2.09150000      -0.01100000       1.61380000
C        2.77090000      -1.09840000       2.45610000
C        2.00910000       1.28150000       2.42830000
C        0.80300000      -0.58740000       0.98730000
H        1.11130000       2.15550000      -0.17760000
H       -0.10680000       1.89330000      -1.41900000
H       -0.59830000       2.09910000       0.26490000
H       -1.14720000      -0.32740000      -1.81840000
H       -0.96570000      -1.62760000      -0.63060000
H       -1.91960000      -0.19070000      -0.23270000
H        1.51390000      -1.49940000      -1.08160000
H        3.63700000      -0.56840000       0.10500000
H        2.94920000       1.02600000      -0.23190000
H        3.78470000      -0.79450000       2.74100000
H        2.20720000      -1.28950000       3.37710000
H        2.84070000      -2.04220000       1.90570000
H        1.52910000       2.09680000       1.88530000
H        1.43850000       1.11750000       3.35020000
H        3.01130000       1.61790000       2.72010000
H        0.20780000      -1.35050000       1.48170000
