16
Properties=species:S:1:pos:R:3 gdb_12899=T pbc="F F F"
C       -0.00200000       1.56740000       0.00080000
C        0.00030000       0.06920000       0.05290000
C       -1.23410000      -0.83430000       0.07940000
O       -0.57500000      -1.77520000       0.97370000
C        0.57040000      -0.93870000       1.01710000
C        1.20510000      -0.79080000      -0.35520000
C        1.15530000      -1.81060000      -1.36000000
C        1.10560000      -2.65860000      -2.21200000
H        0.98220000       1.97260000       0.25550000
H       -0.25780000       1.92930000      -1.00200000
H       -0.72920000       1.98690000       0.70500000
H       -2.09260000      -0.37240000       0.57970000
H       -1.54390000      -1.30080000      -0.86130000
H        1.11870000      -0.86240000       1.95000000
H        2.12990000      -0.21740000      -0.32240000
H        1.06870000      -3.41690000      -2.95410000
