16
Properties=species:S:1:pos:R:3 gdb_99368=T pbc="F F F"
O        0.13190000       1.28920000       0.00740000
C       -0.04480000      -0.10170000       0.00180000
C       -1.53400000      -0.40060000       0.01470000
O       -2.42580000       0.39850000       0.02720000
O       -1.71640000      -1.74550000       0.00990000
C       -3.08190000      -2.17750000       0.02100000
C       -3.03800000      -3.70790000       0.01120000
C       -4.37850000      -4.28680000       0.02130000
N       -5.44400000      -4.73260000       0.02930000
H        1.07640000       1.46910000      -0.00520000
H        0.38250000      -0.58960000      -0.88880000
H        0.39960000      -0.59880000       0.87880000
H       -3.58820000      -1.79710000       0.91230000
H       -3.60610000      -1.78620000      -0.85520000
H       -2.50190000      -4.05710000      -0.87760000
H       -2.48400000      -4.06780000       0.88460000
