10
Properties=species:S:1:pos:R:3 gdb_21397=T pbc="F F F"
N        0.00290000       1.32620000       0.00960000
N        1.31170000       1.72820000      -0.00060000
N        2.07500000       0.69620000      -0.01400000
N        1.25380000      -0.37890000      -0.01210000
N        1.38820000      -1.72400000      -0.02160000
C        0.10080000      -2.08050000      -0.01090000
N       -0.84280000      -1.08240000       0.00440000
C       -0.05450000      -0.02540000       0.00290000
H       -0.72780000       2.01710000       0.02230000
H       -0.17650000      -3.12450000      -0.01430000
