15
Properties=species:S:1:pos:R:3 gdb_43809=T pbc="F F F"
N        0.11130000       1.14100000       0.47310000
C        0.05720000      -0.02330000       0.02810000
O        0.98730000      -0.81470000      -0.60970000
C        0.06200000      -1.92560000      -0.68190000
C        0.04200000      -2.86910000      -1.82690000
C        0.48950000      -3.32420000      -0.43880000
C       -1.04860000      -1.08280000      -0.03670000
C       -1.60340000      -1.55800000       1.21780000
N       -2.04070000      -1.97380000       2.20300000
H        1.02940000       1.56450000       0.33320000
H       -0.91840000      -3.20660000      -2.20160000
H        0.80960000      -2.74230000      -2.58230000
H        1.54930000      -3.49520000      -0.28710000
H       -0.16720000      -3.96480000       0.14000000
H       -1.85100000      -0.80190000      -0.72450000
