19
Properties=species:S:1:pos:R:3 gdb_116285=T pbc="F F F"
O       -0.00290000       1.49080000      -0.07190000
C        0.07230000       0.07490000      -0.04200000
C       -1.31410000      -0.56900000      -0.11870000
C       -2.03090000      -0.40730000      -1.47260000
C       -3.02070000      -1.56950000      -1.44950000
O       -2.32220000      -2.63910000      -0.81790000
C       -1.36530000      -2.11930000       0.09620000
C       -0.04470000      -2.84210000      -0.14730000
O        0.87360000      -2.84270000       0.63080000
H       -0.29520000       1.75690000      -0.94920000
H        0.71590000      -0.30910000      -0.84910000
H        0.55840000      -0.18660000       0.90160000
H       -1.92610000      -0.10280000       0.66080000
H       -2.52150000       0.56320000      -1.58190000
H       -1.32120000      -0.53370000      -2.30010000
H       -3.92240000      -1.30580000      -0.87540000
H       -3.33260000      -1.91220000      -2.43980000
H       -1.66040000      -2.33840000       1.13150000
H       -0.00880000      -3.38700000      -1.11720000
