20
Properties=species:S:1:pos:R:3 gdb_14304=T pbc="F F F"
C       -0.02580000       1.59310000       0.04340000
C        0.04960000       0.08530000      -0.02390000
C        0.66690000      -0.68390000      -1.18630000
C        1.61790000       0.04160000      -2.13640000
C        2.93390000       0.11170000      -1.32720000
C        3.80200000       1.33260000      -1.57070000
O        2.52660000       0.09220000       0.05320000
C        1.34770000      -0.66370000       0.15780000
H        0.94600000       2.04760000      -0.15900000
H       -0.75350000       1.99410000      -0.67080000
H       -0.33140000       1.91340000       1.04500000
H       -0.81150000      -0.42270000       0.40590000
H        0.15120000      -1.56760000      -1.54310000
H        1.75020000      -0.51090000      -3.07070000
H        1.26660000       1.04650000      -2.39690000
H        3.52130000      -0.80000000      -1.52630000
H        3.23600000       2.25370000      -1.39900000
H        4.66690000       1.33080000      -0.90150000
H        4.16670000       1.33800000      -2.60280000
H        1.42030000      -1.52730000       0.81290000
