15
Properties=species:S:1:pos:R:3 gdb_29323=T pbc="F F F"
C       -0.04500000       1.51930000      -0.00400000
C       -0.01490000       0.02410000       0.00660000
C       -0.01270000      -0.83040000      -1.05470000
O        0.00400000      -2.12210000      -0.67410000
C        0.01990000      -2.11800000       0.70410000
C        0.05290000      -3.33270000       1.40220000
N        0.08720000      -4.30350000       2.03940000
C        0.00340000      -0.82040000       1.16940000
N       -0.06390000      -0.39150000       2.47850000
H        0.84830000       1.94820000       0.46730000
H       -0.09050000       1.90370000      -1.02600000
H       -0.91560000       1.90470000       0.53890000
H       -0.02490000      -0.65610000      -2.11920000
H        0.17460000      -1.08580000       3.17270000
H        0.37470000       0.49850000       2.66310000
