19
Properties=species:S:1:pos:R:3 gdb_75319=T pbc="F F F"
C       -0.00890000       1.54010000      -0.14550000
C       -0.01830000       0.04360000      -0.06540000
C       -0.03360000      -0.81710000      -1.08950000
C       -0.04190000      -2.26590000      -0.65390000
C        0.10910000      -2.19100000       0.86350000
C        1.31490000      -1.54130000       1.43810000
C        0.05680000      -0.68950000       1.24270000
C       -0.68340000      -0.27290000       2.45160000
O       -0.62290000      -0.83930000       3.52000000
H        0.87630000       1.95860000       0.34940000
H       -0.01410000       1.87970000      -1.18450000
H       -0.88170000       1.97970000       0.35240000
H       -0.01780000      -0.52680000      -2.13470000
H       -0.97710000      -2.76680000      -0.93710000
H        0.76900000      -2.84340000      -1.11660000
H       -0.43000000      -2.88670000       1.49540000
H        1.55240000      -1.77690000       2.46970000
H        2.15420000      -1.30710000       0.79170000
H       -1.33910000       0.61670000       2.32130000
