16
Properties=species:S:1:pos:R:3 gdb_51262=T pbc="F F F"
O       -0.45040000       0.58050000       0.80100000
C        0.09970000       0.96490000      -0.19600000
C        1.26110000       1.94860000      -0.18210000
C        1.19000000       2.93010000      -1.30420000
N        0.17340000       3.16120000      -2.03950000
C        0.55720000       4.21650000      -2.94640000
C        0.92900000       5.53820000      -2.30160000
C        2.00240000       4.53480000      -2.60050000
O        2.33350000       3.63430000      -1.55230000
H       -0.18810000       0.60320000      -1.20360000
H        1.29020000       2.45390000       0.78850000
H        2.19860000       1.38140000      -0.27080000
H        0.13820000       4.18560000      -3.94420000
H        0.90920000       6.41410000      -2.94050000
H        0.63630000       5.70750000      -1.27080000
H        2.82680000       4.71960000      -3.27600000
