18
Properties=species:S:1:pos:R:3 gdb_27902=T pbc="F F F"
N       -0.01600000       1.39930000       0.18280000
C        0.00200000       0.00590000       0.04360000
C       -1.19900000      -0.70880000       0.01230000
C       -1.18100000      -2.10480000      -0.06210000
N       -2.38310000      -2.81560000      -0.15510000
C        0.03930000      -2.78620000      -0.10130000
C        1.24100000      -2.07190000      -0.07520000
N        2.46090000      -2.74960000      -0.18170000
C        1.22170000      -0.67590000      -0.00070000
H        0.80720000       1.85910000      -0.17970000
H       -0.85500000       1.83690000      -0.17080000
H       -2.14680000      -0.17940000       0.04660000
H       -3.17540000      -2.34510000       0.25830000
H       -2.32430000      -3.77180000       0.16450000
H        0.05370000      -3.87010000      -0.17020000
H        2.43190000      -3.70720000       0.13800000
H        3.24460000      -2.25780000       0.22310000
H        2.15500000      -0.12080000       0.02340000
