18
Properties=species:S:1:pos:R:3 gdb_126465=T pbc="F F F"
C        0.96760000       1.61480000       0.34710000
C       -0.06080000       0.47420000       0.28960000
C        0.32080000      -0.67890000       1.15840000
N        0.56280000      -1.87090000       0.68040000
O        0.89170000      -2.62130000       1.82430000
C        0.80350000      -1.78490000       2.86150000
C        1.05170000      -2.31840000       4.23470000
N        1.56140000      -1.25580000       5.09620000
N        0.45870000      -0.57880000       2.52960000
H        1.94080000       1.28310000      -0.02670000
H        0.63580000       2.45750000      -0.26570000
H        1.09980000       1.96500000       1.37400000
H       -1.03750000       0.84490000       0.62210000
H       -0.17990000       0.10820000      -0.73370000
H        0.10750000      -2.78080000       4.57670000
H        1.78440000      -3.13010000       4.16470000
H        0.98220000      -0.42960000       4.98180000
H        1.49570000      -1.54110000       6.06730000
