18
Properties=species:S:1:pos:R:3 gdb_85381=T pbc="F F F"
C       -0.23310000       1.48110000       0.04590000
C        0.04830000      -0.01940000       0.05880000
C        0.64740000      -0.50710000      -1.26640000
C        1.16910000      -1.94080000      -1.20670000
O        1.47660000      -2.55270000      -2.19940000
C        1.28570000      -2.54510000       0.18810000
C        1.59600000      -1.54440000       1.29920000
O        2.31650000      -1.80450000       2.24100000
N        0.97740000      -0.33600000       1.14040000
H        0.69000000       2.04630000      -0.11980000
H       -0.93720000       1.72970000      -0.75260000
H       -0.67280000       1.80650000       0.99450000
H       -0.90680000      -0.54410000       0.22420000
H       -0.07300000      -0.43120000      -2.08610000
H        1.50300000       0.12860000      -1.53120000
H        0.30680000      -2.99320000       0.41890000
H        2.02200000      -3.34820000       0.19730000
H        1.09350000       0.31720000       1.90150000
