19
Properties=species:S:1:pos:R:3 gdb_64975=T pbc="F F F"
C        0.11200000       1.37390000      -0.04040000
C        0.06140000      -0.14250000       0.01440000
C        1.38610000      -0.88960000      -0.01300000
C        0.60850000      -0.81750000       1.26300000
C       -1.08790000      -0.85950000      -0.64550000
N       -1.16410000      -2.12670000      -0.62000000
N       -2.03100000      -0.00540000      -1.26880000
C       -3.16740000      -0.38160000      -1.93990000
O       -3.55520000      -1.51520000      -2.11200000
H        1.00140000       1.73630000       0.48120000
H        0.17430000       1.75290000      -1.06860000
H       -0.75210000       1.83880000       0.45130000
H        1.38490000      -1.83590000      -0.53970000
H        2.28700000      -0.29310000      -0.11170000
H        0.96490000      -0.17050000       2.05760000
H        0.09350000      -1.71610000       1.57940000
H       -1.99470000      -2.45760000      -1.10760000
H       -1.86180000       0.98660000      -1.22190000
H       -3.71530000       0.50100000      -2.32390000
