18
Properties=species:S:1:pos:R:3 gdb_99252=T pbc="F F F"
N       -0.77590000       1.12360000       0.21230000
C        0.28290000       0.16410000      -0.11760000
C        1.01090000      -0.31110000       1.13130000
N        0.22320000      -0.38830000       2.23720000
H        0.62740000      -0.55080000       3.14310000
H       -0.65500000       0.10860000       2.18130000
N        2.24340000      -0.64880000       1.03640000
C        2.93450000      -1.17630000       2.19560000
C        4.38820000      -1.51450000       1.82730000
O        4.67720000      -1.26800000       0.54570000
O        5.17850000      -1.95630000       2.61790000
H       -0.38520000       2.05170000       0.34260000
H       -1.44040000       1.19160000      -0.55000000
H       -0.19190000      -0.71220000      -0.57470000
H        1.04230000       0.52500000      -0.82140000
H        3.83720000      -0.91610000       0.16820000
H        2.97460000      -0.46410000       3.03470000
H        2.47470000      -2.09630000       2.58670000
