18
Properties=species:S:1:pos:R:3 gdb_99913=T pbc="F F F"
C       -0.16430000       1.41040000      -0.01880000
O       -0.19840000      -0.00370000       0.09530000
C        0.55950000      -0.58130000       1.13590000
C        2.06610000      -0.28190000       1.02360000
C        0.05070000      -0.12030000       2.45630000
N       -0.34790000       0.24500000       3.47760000
C        0.34600000      -2.09900000       1.06470000
C       -0.72230000      -2.70970000       0.27220000
O        0.64060000      -2.70430000      -0.18140000
H        0.81620000       1.77550000      -0.34770000
H       -0.90670000       1.66860000      -0.77610000
H       -0.43340000       1.89940000       0.92650000
H        2.27610000       0.78330000       1.13650000
H        2.61650000      -0.81780000       1.80130000
H        2.40880000      -0.62380000       0.04440000
H        0.73170000      -2.62480000       1.93880000
H       -1.10950000      -3.68360000       0.56540000
H       -1.39410000      -2.06890000      -0.28940000
