16
Properties=species:S:1:pos:R:3 gdb_32353=T pbc="F F F"
C        0.10640000       1.40450000       0.00650000
O        0.03050000      -0.00580000       0.00280000
C       -1.21480000      -0.55950000       0.01080000
C       -2.39500000       0.12150000       0.02200000
N       -3.57850000      -0.57590000       0.02910000
C       -3.72190000      -1.96870000       0.02600000
O       -4.83040000      -2.48300000       0.03320000
C       -2.44050000      -2.65870000       0.01400000
C       -1.26080000      -1.98750000       0.00690000
H        1.16740000       1.65760000      -0.00090000
H       -0.37520000       1.83570000      -0.88240000
H       -0.36130000       1.83020000       0.90530000
H       -2.47850000       1.19850000       0.02600000
H       -4.45300000      -0.07040000       0.03750000
H       -2.48140000      -3.74080000       0.01110000
H       -0.31260000      -2.51590000      -0.00210000
