18
Properties=species:S:1:pos:R:3 gdb_52902=T pbc="F F F"
C       -0.13790000       1.54960000       0.01240000
C       -0.07700000       0.09610000      -0.01700000
C       -0.03080000      -1.10750000      -0.05010000
C        0.04780000      -2.54260000      -0.09670000
C       -0.28520000      -3.36990000       1.13260000
C       -1.20300000      -3.38060000      -0.06240000
O        1.04240000      -3.07210000      -0.95830000
C        2.32570000      -2.82770000      -0.60250000
N        3.26350000      -3.29730000      -1.30300000
H        0.55630000       1.98190000      -0.71640000
H       -1.14240000       1.91070000      -0.23440000
H        0.12730000       1.94440000       0.99930000
H        0.33180000      -4.24550000       1.29900000
H       -0.59460000      -2.84040000       2.02570000
H       -2.15010000      -2.85960000       0.00030000
H       -1.19230000      -4.25800000      -0.69820000
H        2.41970000      -2.21260000       0.29990000
H        4.16020000      -3.02330000      -0.90640000
