18
Properties=species:S:1:pos:R:3 gdb_36214=T pbc="F F F"
N       -0.19730000      -1.01950000       0.58880000
C       -0.10630000       0.07680000       0.23530000
C        0.02810000       1.47130000      -0.20130000
C        1.45590000       1.95360000      -0.17210000
C        2.12290000       2.49430000      -1.19640000
C        3.47600000       2.96730000      -0.79360000
C        3.48760000       4.06860000       0.25040000
C        3.58500000       2.63170000       0.68820000
C        2.30110000       1.90750000       1.08940000
H       -0.38620000       1.56370000      -1.21060000
H       -0.60420000       2.08390000       0.45650000
H        1.72800000       2.61610000      -2.19950000
H        4.31130000       2.87960000      -1.47900000
H        4.38820000       4.66810000       0.33380000
H        2.56390000       4.61310000       0.42090000
H        4.52380000       2.29400000       1.10960000
H        1.79590000       2.38550000       1.93960000
H        2.49530000       0.87020000       1.39190000
