21
Properties=species:S:1:pos:R:3 gdb_114324=T pbc="F F F"
C       -0.07620000       1.44000000      -0.20300000
O       -0.04920000       0.13260000       0.32570000
C       -1.24960000      -0.57330000       0.12310000
C       -1.56220000      -1.21630000      -1.27640000
C       -1.73640000      -2.56540000      -0.57100000
C       -0.45620000      -2.98650000       0.11980000
C        0.95100000      -2.79830000      -0.41130000
C       -1.32770000      -1.94670000       0.77300000
O       -1.91720000      -2.14750000       2.01160000
H        0.88230000       1.90860000       0.03310000
H       -0.21070000       1.44170000      -1.29510000
H       -0.88500000       2.03980000       0.24340000
H       -2.10500000       0.03340000       0.45600000
H       -2.47740000      -0.83010000      -1.72950000
H       -0.75250000      -1.16190000      -2.00940000
H       -2.53370000      -3.27190000      -0.76470000
H       -0.60520000      -3.93950000       0.62660000
H        1.10960000      -1.79580000      -0.80950000
H        1.68430000      -2.94520000       0.38930000
H        1.17050000      -3.52800000      -1.19920000
H       -1.21800000      -2.19630000       2.67230000
