20
Properties=species:S:1:pos:R:3 gdb_69492=T pbc="F F F"
C       -0.00190000       1.48750000       0.11860000
C       -0.05230000      -0.01970000       0.11600000
C       -1.35160000      -0.71280000      -0.32050000
C       -1.38510000      -2.02500000       0.45620000
C       -1.52440000      -1.93800000       1.96970000
C       -0.16860000      -2.12240000       1.34010000
O        0.48950000      -3.35120000       1.44350000
C        0.64480000      -0.87820000       1.12000000
N        1.20430000      -0.70470000      -0.23100000
H        0.97860000       1.83950000       0.44770000
H       -0.17880000       1.88260000      -0.88860000
H       -0.76800000       1.90620000       0.78090000
H       -2.21960000      -0.08260000      -0.09080000
H       -1.36170000      -0.87810000      -1.40530000
H       -1.76230000      -2.92360000      -0.01780000
H       -1.77940000      -0.98370000       2.42170000
H       -1.94830000      -2.80800000       2.45980000
H        0.88770000      -3.40440000       2.31930000
H        1.24090000      -0.46730000       1.93250000
H        1.02750000      -1.54350000      -0.78150000
