15
Properties=species:S:1:pos:R:3 gdb_31683=T pbc="F F F"
O       -0.14260000       1.42360000      -0.19300000
C       -0.00010000       0.02420000       0.01370000
C       -1.37540000      -0.56740000       0.00960000
N       -1.68440000      -1.83570000      -0.03300000
C       -3.06660000      -1.87580000       0.01320000
C       -3.86450000      -3.10050000      -0.01090000
O       -3.43590000      -4.22880000      -0.06970000
C       -3.57670000      -0.59380000       0.08040000
N       -2.48860000       0.22940000       0.08180000
H        0.71250000       1.84080000      -0.05920000
H        0.59780000      -0.45440000      -0.77390000
H        0.48960000      -0.19250000       0.97500000
H       -4.96170000      -2.90200000       0.03210000
H       -4.58640000      -0.21890000       0.12020000
H       -2.46310000       1.23640000       0.09710000
