21
Properties=species:S:1:pos:R:3 gdb_120683=T pbc="F F F"
C        0.16290000       1.50690000       0.01460000
C       -0.03110000       0.00520000       0.23650000
C       -1.28210000      -0.54430000      -0.46360000
C       -1.45960000      -2.02360000      -0.23510000
O       -1.88000000      -2.43630000       1.06560000
C       -2.77850000      -2.66800000      -0.03720000
C       -4.01760000      -1.93920000      -0.06110000
C       -5.07650000      -1.36540000      -0.09540000
C       -6.35240000      -0.66690000      -0.12700000
H        1.05790000       1.87260000       0.52730000
H        0.27000000       1.74100000      -1.05070000
H       -0.69370000       2.07600000       0.39260000
H        0.85440000      -0.53720000      -0.12060000
H       -0.10960000      -0.20760000       1.30900000
H       -2.17460000      -0.01890000      -0.10810000
H       -1.21380000      -0.36410000      -1.54540000
H       -0.67540000      -2.65680000      -0.65880000
H       -2.86260000      -3.72030000      -0.31070000
H       -6.42540000      -0.00660000      -0.99820000
H       -7.18980000      -1.37180000      -0.17120000
H       -6.48430000      -0.05060000       0.76910000
