15
Properties=species:S:1:pos:R:3 gdb_3258=T pbc="F F F"
C       -0.03600000       1.51070000      -0.05620000
C        1.38380000       2.01780000      -0.02560000
C        2.18070000       1.84200000       1.04580000
C        1.87100000       1.02940000       2.19850000
C        1.10080000      -0.09250000       2.19980000
C        0.45240000      -0.67530000       1.04860000
C        0.00100000       0.00360000      -0.02330000
H       -0.57740000       1.88340000       0.82470000
H       -0.56130000       1.87030000      -0.94400000
H        1.76050000       2.55250000      -0.89330000
H        3.15490000       2.32700000       1.05140000
H        2.40460000       1.26850000       3.11580000
H        1.07030000      -0.67510000       3.11800000
H        0.34990000      -1.75880000       1.05600000
H       -0.36360000      -0.54140000      -0.88980000
