20
Properties=species:S:1:pos:R:3 gdb_110669=T pbc="F F F"
C       -0.19520000       1.30720000      -0.09700000
O        0.26700000      -0.01490000       0.06580000
C        0.81500000      -0.56700000      -1.10610000
C        1.26200000      -1.99870000      -0.79590000
C        0.06030000      -2.56180000      -1.48330000
C       -0.24560000      -1.16280000      -2.09660000
C        0.33930000      -1.23740000      -3.50910000
C        1.59390000      -2.12360000      -3.28500000
N        1.39250000      -2.83230000      -1.99920000
H        0.61220000       1.98100000      -0.42390000
H       -1.01570000       1.37600000      -0.82700000
H       -0.56340000       1.64280000       0.87540000
H        1.55260000       0.12790000      -1.54190000
H        1.78010000      -2.30710000       0.10560000
H       -0.61710000      -3.36510000      -1.22100000
H       -1.25010000      -0.75060000      -2.00760000
H       -0.36300000      -1.71410000      -4.20130000
H        0.59000000      -0.25060000      -3.91200000
H        1.71390000      -2.87310000      -4.07220000
H        2.51860000      -1.54000000      -3.24280000
