14
Properties=species:S:1:pos:R:3 gdb_42583=T pbc="F F F"
O       -0.04750000       0.01810000       0.06160000
C       -0.08500000       1.21040000       0.01810000
C       -1.30920000       2.12520000       0.03490000
O       -1.43130000       2.54070000      -1.36640000
C       -0.56950000       3.65600000      -1.07220000
C        0.93140000       3.29540000      -0.89760000
C        0.80390000       3.32650000       0.58740000
C       -0.73920000       3.50320000       0.45430000
N        1.09450000       2.05180000      -0.08260000
H       -2.22830000       1.70160000       0.43740000
H       -0.78850000       4.55340000      -1.65210000
H        1.75920000       3.54070000      -1.55190000
H        1.46800000       3.68040000       1.36480000
H       -1.30690000       4.18290000       1.08100000
