18
Properties=species:S:1:pos:R:3 gdb_35898=T pbc="F F F"
C       -0.25510000      -1.25470000      -0.37030000
C       -0.12550000      -0.07650000      -0.17190000
C        0.00390000       1.35790000       0.07370000
C       -0.72320000       1.78090000       1.37360000
O        0.08100000       1.56160000       2.51320000
C        1.16690000       2.46890000       2.52470000
C        2.01980000       2.33560000       1.27850000
C        2.39750000       0.98800000       0.79180000
N        1.42680000       1.79270000       0.04200000
H       -0.36770000      -2.29530000      -0.55060000
H       -0.48990000       1.88300000      -0.75550000
H       -0.99060000       2.84770000       1.30300000
H       -1.63900000       1.20010000       1.50190000
H        0.78860000       3.50200000       2.60760000
H        1.75430000       2.25230000       3.42270000
H        2.69360000       3.17390000       1.10610000
H        3.34550000       0.82450000       0.28630000
H        2.02080000       0.13650000       1.35190000
