21
Properties=species:S:1:pos:R:3 gdb_92662=T pbc="F F F"
O       -0.39410000       1.30630000       1.08690000
C       -0.10040000       0.20270000       0.26610000
C        0.53200000      -1.02210000       0.98670000
C       -0.82140000      -1.78270000       0.88780000
C       -1.65040000      -1.76380000       2.17100000
O       -2.13950000      -0.45250000       2.45000000
C       -3.17520000      -0.08780000       1.53750000
C       -2.72580000      -0.12170000       0.05280000
C       -1.31980000      -0.70310000      -0.13320000
H       -0.85460000       0.95470000       1.86470000
H        0.46640000       0.60290000      -0.57890000
H        1.32900000      -1.49640000       0.40790000
H        0.90810000      -0.81910000       1.99450000
H       -0.75680000      -2.80700000       0.50950000
H       -2.50450000      -2.45550000       2.09700000
H       -1.04960000      -2.06050000       3.03710000
H       -4.02790000      -0.76500000       1.69590000
H       -3.48560000       0.91600000       1.83580000
H       -3.44640000      -0.70860000      -0.52620000
H       -2.73660000       0.89160000      -0.36050000
H       -1.19910000      -1.05160000      -1.16280000
