17
Properties=species:S:1:pos:R:3 gdb_66737=T pbc="F F F"
C        0.09990000       1.62690000       0.00080000
C        0.09080000       0.12620000      -0.00300000
C        0.44780000      -0.86680000      -1.14190000
C        0.70930000      -1.87060000      -0.07590000
C        0.77950000      -0.77990000       1.06850000
C       -0.31490000      -0.79930000       2.19870000
N       -1.52870000      -1.15460000       1.38640000
C       -1.13720000      -0.80010000       0.22830000
N       -0.68630000      -1.75140000      -0.78820000
H        1.11410000       2.01980000      -0.13080000
H       -0.52330000       2.02980000      -0.80450000
H       -0.29090000       2.01650000       0.94630000
H        0.82840000      -0.75280000      -2.14760000
H        1.16690000      -2.85050000      -0.11540000
H        1.81140000      -0.55770000       1.35780000
H       -0.19960000      -1.58840000       2.94810000
H       -0.33700000       0.16400000       2.73010000
