17
Properties=species:S:1:pos:R:3 gdb_123437=T pbc="F F F"
C       -0.03820000       1.57290000       0.39210000
C       -0.17690000       0.06120000       0.28770000
C       -1.34250000      -0.53270000      -0.41270000
N        0.00240000      -0.60660000      -1.00700000
C        1.36150000       2.03450000       0.13360000
N        2.19540000       2.40650000       1.09350000
N        3.32320000       2.69560000       0.39830000
C        3.12610000       2.49330000      -0.91820000
N        1.89460000       2.07540000      -1.12790000
H       -0.69930000       2.04820000      -0.34150000
H       -0.34640000       1.90660000       1.38750000
H        0.26560000      -0.48490000       1.11890000
H       -1.75350000      -1.48480000      -0.08850000
H       -2.07260000       0.14960000      -0.84260000
H        0.11880000       0.09340000      -1.73660000
H        4.14330000       3.02010000       0.88330000
H        3.88670000       2.66330000      -1.66550000
