15
Properties=species:S:1:pos:R:3 gdb_123628=T pbc="F F F"
C       -0.04080000       1.56950000      -0.07040000
C        1.51130000       1.33900000       0.04670000
N        1.13450000       0.21490000       0.98020000
C       -0.01500000      -0.00050000       0.01350000
C        0.72010000      -0.32190000      -1.28680000
C        1.75440000       0.58460000      -1.26230000
N        2.38280000       0.39180000      -2.42830000
N        1.77310000      -0.61260000      -3.13870000
N        0.74480000      -1.02930000      -2.43240000
H       -0.45390000       2.03410000       0.82670000
H       -0.42260000       2.02470000      -0.98420000
H        2.20750000       2.09570000       0.40220000
H        1.80720000      -0.55300000       0.95410000
H       -0.86210000      -0.59330000       0.34920000
H        3.20270000       0.82470000      -2.82220000
