19
Properties=species:S:1:pos:R:3 gdb_102843=T pbc="F F F"
C       -0.37700000       1.50270000      -0.20090000
C       -0.15400000      -0.00580000      -0.07770000
C        0.71390000      -0.38590000       1.12220000
C        0.87730000      -1.91910000       1.23340000
C        1.55300000      -2.32510000       2.46260000
N        2.07570000      -2.61740000       3.45090000
O        1.99360000       0.21520000       0.94410000
C        2.64210000       0.69310000       2.03370000
N        3.78960000       1.19470000       1.90030000
H        0.57480000       2.02770000      -0.31150000
H       -0.99640000       1.73100000      -1.07260000
H       -0.88590000       1.90250000       0.68330000
H       -1.11540000      -0.52440000       0.01770000
H        0.32630000      -0.39020000      -0.98570000
H        0.25470000      -0.00710000       2.04600000
H       -0.10740000      -2.39770000       1.20090000
H        1.44910000      -2.27740000       0.37100000
H        2.06790000       0.59470000       2.96340000
H        4.13650000       1.51320000       2.80260000
