20
Properties=species:S:1:pos:R:3 gdb_63091=T pbc="F F F"
C       -0.05700000       1.54720000       0.05710000
C        0.03410000       0.03430000      -0.02250000
C       -1.16140000      -0.67720000       0.58880000
C        0.67670000      -0.66150000      -1.19440000
C        1.59970000       0.14350000      -2.09090000
O        2.63670000       0.67670000      -1.24710000
C        2.61090000       0.09650000      -0.00080000
N        3.52520000       0.22430000       0.86180000
C        1.36430000      -0.69440000       0.15770000
H        0.81470000       2.04960000      -0.36590000
H       -0.94590000       1.90270000      -0.47720000
H       -0.15030000       1.86700000       1.10060000
H       -2.08790000      -0.38250000       0.08290000
H       -1.06840000      -1.76480000       0.51150000
H       -1.26570000      -0.42350000       1.64940000
H        0.20450000      -1.54240000      -1.61410000
H        2.06100000      -0.49350000      -2.85480000
H        1.11150000       0.98680000      -2.59070000
H        4.29360000       0.78170000       0.48460000
H        1.40590000      -1.56620000       0.79690000
