15
Properties=species:S:1:pos:R:3 gdb_12994=T pbc="F F F"
N       -0.11470000       1.45600000      -0.11670000
C       -0.07770000       0.03210000      -0.00940000
C       -0.46240000      -0.80130000      -1.21670000
C       -1.30790000      -0.85040000       0.01950000
C       -0.98620000      -1.97230000       0.98900000
O        0.41200000      -1.84650000       1.31640000
C        0.91430000      -0.64860000       0.89600000
O        1.98460000      -0.23870000       1.24560000
H       -0.16730000       1.87610000       0.80750000
H        0.75820000       1.78430000      -0.52210000
H       -0.85060000      -0.22360000      -2.04730000
H        0.14390000      -1.66070000      -1.48540000
H       -2.30180000      -0.42240000       0.01040000
H       -1.56430000      -1.88840000       1.91610000
H       -1.14030000      -2.97070000       0.56850000
