16
Properties=species:S:1:pos:R:3 gdb_48762=T pbc="F F F"
O       -0.08020000       0.00040000       0.18290000
C        0.00470000       1.16960000      -0.10450000
C        1.26380000       1.93450000      -0.07410000
C        1.24550000       3.42860000       0.25420000
C        1.63370000       2.99110000      -1.12270000
C        3.09880000       2.75550000      -1.44710000
C        3.56340000       1.61820000      -0.51110000
O        4.67810000       1.16210000      -0.42580000
N        2.46750000       1.23410000       0.22370000
H       -0.88510000       1.77210000      -0.39460000
H        0.27730000       3.90490000       0.36910000
H        2.01180000       3.76390000       0.94480000
H        0.94100000       3.19050000      -1.93180000
H        3.24010000       2.43190000      -2.48220000
H        3.72980000       3.63490000      -1.29160000
H        2.48400000       0.44210000       0.84620000
