14
Properties=species:S:1:pos:R:3 gdb_2596=T pbc="F F F"
O        0.11550000       1.34690000       0.33020000
C       -0.00890000       0.03670000      -0.18410000
C       -1.41870000      -0.51910000      -0.03180000
C       -1.58240000      -1.97530000       0.26040000
N       -1.86110000      -0.98470000       1.30230000
C       -2.40540000       0.19920000      -0.80320000
C       -3.16790000       0.84360000      -1.47410000
H       -0.53230000       1.89670000      -0.12650000
H        0.28690000      -0.01390000      -1.24340000
H        0.68850000      -0.58530000       0.38830000
H       -2.45430000      -2.49810000      -0.11980000
H       -0.67710000      -2.57530000       0.32020000
H       -1.07860000      -0.91010000       1.94920000
H       -3.86690000       1.39090000      -2.05720000
