18
Properties=species:S:1:pos:R:3 gdb_30143=T pbc="F F F"
C        0.33470000       1.51120000      -0.51490000
N        0.07580000       0.12920000      -0.12400000
C        1.22480000      -0.74820000       0.04220000
C        0.44200000      -0.31530000       1.23690000
C        1.03490000       0.57350000       2.25770000
C        0.53660000       0.82260000       3.51410000
N        1.42600000       1.69480000       4.10100000
C        2.40980000       1.93870000       3.19180000
N        2.21010000       1.28010000       2.07500000
H        1.26900000       1.92600000      -0.11600000
H        0.36720000       1.55480000      -1.60860000
H       -0.49750000       2.13840000      -0.17760000
H        1.11680000      -1.75870000      -0.34550000
H        2.21830000      -0.31490000      -0.05580000
H       -0.28950000      -1.00670000       1.65120000
H       -0.34060000       0.46790000       4.02890000
H        1.36340000       2.07130000       5.03180000
H        3.24050000       2.59600000       3.40120000
