17
Properties=species:S:1:pos:R:3 gdb_117880=T pbc="F F F"
C       -0.11050000       1.21420000       1.02890000
O       -0.06100000      -0.19500000       1.03490000
C        1.05410000      -0.70950000       0.35740000
C        1.01220000      -2.24640000       0.44830000
O        2.00630000      -2.82100000      -0.38640000
C        1.11700000      -2.70020000       1.83420000
C        1.27940000      -3.07630000       2.97100000
C        1.42060000      -3.51060000       4.33710000
O        2.41800000      -4.02080000       4.79300000
H       -0.16660000       1.61470000       0.00490000
H       -1.00900000       1.50960000       1.57490000
H        0.76930000       1.65340000       1.52370000
H        1.04580000      -0.44040000      -0.71050000
H        1.99770000      -0.33810000       0.79230000
H        0.04880000      -2.57280000       0.03940000
H        2.84930000      -2.77490000       0.07840000
H        0.52040000      -3.33630000       4.96050000
