17
Properties=species:S:1:pos:R:3 gdb_10418=T pbc="F F F"
N       -0.10810000       1.35360000       0.36870000
C       -0.12250000      -0.06430000       0.01890000
C       -1.58050000      -0.53770000      -0.14550000
C       -1.75530000      -2.07950000       0.00880000
C       -2.23760000      -1.76820000       1.44850000
N       -2.41860000      -0.35000000       1.05680000
C       -2.14960000       0.06960000      -1.36010000
N       -2.56240000       0.55170000      -2.32650000
H        0.82790000       1.64630000       0.62670000
H       -0.38170000       1.91490000      -0.43310000
H        0.44210000      -0.32770000      -0.89100000
H        0.31820000      -0.62560000       0.85040000
H       -2.53970000      -2.48170000      -0.63190000
H       -0.84650000      -2.67140000      -0.10870000
H       -3.15910000      -2.25830000       1.77570000
H       -1.46240000      -1.94300000       2.20590000
H       -2.05000000       0.36180000       1.68060000
