12
Properties=species:S:1:pos:R:3 gdb_45937=T pbc="F F F"
O       -0.01290000      -0.08220000       0.00260000
C       -0.02900000       1.12270000       0.02680000
C       -1.32940000       1.90440000      -0.01240000
O       -1.27260000       3.30470000       0.25720000
C       -0.13370000       4.02620000       0.20830000
O       -0.15430000       5.21370000       0.31310000
C        1.20630000       3.26990000       0.06640000
O        2.25210000       3.85620000       0.01010000
N        1.12530000       1.88510000       0.04600000
H       -1.77130000       1.75750000      -1.00520000
H       -2.00800000       1.46250000       0.72030000
H        2.00570000       1.38070000       0.01480000
