17
Properties=species:S:1:pos:R:3 gdb_111181=T pbc="F F F"
C        0.09770000       1.42880000       0.26510000
N       -0.25030000       0.08070000      -0.17030000
C        0.53390000      -0.42240000      -1.24520000
C        1.89640000      -1.18110000      -0.97880000
O        1.11180000      -2.26800000      -0.34980000
C        0.36800000      -1.92450000      -1.58470000
C        1.73510000      -1.92820000      -2.33550000
C        1.89790000      -1.22890000      -3.59740000
N        2.03190000      -0.67350000      -4.60260000
H        1.13780000       1.54160000       0.61460000
H       -0.05370000       2.13060000      -0.56220000
H       -0.56840000       1.72730000       1.07900000
H       -0.21040000      -0.57670000       0.60180000
H        0.53600000       0.27230000      -2.08960000
H        2.82130000      -0.87670000      -0.49000000
H       -0.52890000      -2.49920000      -1.81400000
H        2.21010000      -2.90920000      -2.34080000
