23
Properties=species:S:1:pos:R:3 gdb_121740=T pbc="F F F"
C       -0.01520000       1.55840000      -0.08600000
C       -0.18590000       0.05540000      -0.31920000
C        1.08810000      -0.59600000      -0.86580000
N        0.93580000      -2.02520000      -1.08000000
C        1.30600000      -2.61740000      -2.27090000
O        1.65750000      -1.98250000      -3.25210000
N        1.24840000      -3.99870000      -2.24700000
C        1.40450000      -4.76990000      -3.47110000
C        2.16880000      -6.06960000      -3.22750000
H        0.78670000       1.76170000       0.63280000
H        0.23840000       2.07610000      -1.01750000
H       -0.93320000       2.00650000       0.30530000
H       -0.47200000      -0.43390000       0.62190000
H       -1.00460000      -0.13020000      -1.02410000
H        1.35300000      -0.17270000      -1.83750000
H        1.92870000      -0.39440000      -0.18470000
H        0.88240000      -2.60920000      -0.26060000
H        0.70040000      -4.42620000      -1.51610000
H        0.42660000      -4.98960000      -3.92550000
H        1.93940000      -4.12270000      -4.16840000
H        3.16650000      -5.86500000      -2.82850000
H        1.64520000      -6.71580000      -2.51320000
H        2.27550000      -6.63020000      -4.16140000
