18
Properties=species:S:1:pos:R:3 gdb_19977=T pbc="F F F"
O        0.03640000       1.32260000      -0.33730000
C        0.03120000      -0.04630000      -0.00570000
C        0.06620000      -0.39450000       1.49830000
O       -1.29010000      -0.87470000       1.46540000
C       -1.40180000      -0.63880000       0.03550000
C       -2.54800000       0.24860000      -0.33450000
C       -3.17650000       0.11780000      -1.70150000
C       -3.92340000      -0.35490000      -0.48330000
H        0.94040000       1.64590000      -0.27520000
H        0.73800000      -0.61030000      -0.62720000
H        0.77710000      -1.17800000       1.79220000
H        0.18500000       0.47500000       2.15740000
H       -1.48300000      -1.59590000      -0.50050000
H       -2.49110000       1.24820000       0.08030000
H       -3.50430000       1.02530000      -2.19510000
H       -2.77770000      -0.63280000      -2.37640000
H       -4.02690000      -1.42410000      -0.33080000
H       -4.77060000       0.22600000      -0.13690000
