17
Properties=species:S:1:pos:R:3 gdb_4837=T pbc="F F F"
C        0.31820000       1.46200000      -0.15500000
C       -0.06470000       0.00160000       0.13940000
C        0.57750000      -0.53750000       1.37080000
N        0.01890000      -0.93830000       2.46820000
C        1.08080000      -1.32580000       3.27910000
C        2.25060000      -1.13620000       2.62370000
C        3.68350000      -1.35140000       2.94240000
O        1.93770000      -0.62600000       1.38700000
H        1.39950000       1.56400000      -0.28210000
H       -0.16730000       1.80710000      -1.07220000
H        0.00910000       2.11900000       0.66330000
H       -1.14410000      -0.09480000       0.27790000
H        0.21260000      -0.62710000      -0.71600000
H        0.92460000      -1.71240000       4.27390000
H        4.15090000      -2.05510000       2.24420000
H        4.25240000      -0.41590000       2.89570000
H        3.77840000      -1.75840000       3.95170000
