16
Properties=species:S:1:pos:R:3 gdb_27409=T pbc="F F F"
C        0.02120000       1.52070000      -0.00200000
C       -0.02180000       0.01070000      -0.00030000
C       -1.22550000      -0.61820000      -0.10940000
C       -1.60280000      -2.03220000      -0.13900000
O       -2.78140000      -2.35370000      -0.24700000
C       -0.58050000      -3.08810000      -0.04020000
C        0.75820000      -2.96920000       0.08320000
C        1.56050000      -1.77210000       0.15290000
N        1.24970000      -0.52030000       0.11940000
H        0.65130000       1.87170000      -0.82610000
H       -0.97060000       1.96550000      -0.09550000
H        0.48960000       1.87820000       0.92110000
H       -2.10190000       0.01900000      -0.19300000
H       -1.01380000      -4.08460000      -0.07630000
H        1.33550000      -3.88940000       0.14020000
H        2.63180000      -1.96470000       0.25280000
