16
Properties=species:S:1:pos:R:3 gdb_34148=T pbc="F F F"
N        0.01040000      -1.13750000       0.02140000
C       -0.01390000       0.01930000       0.03260000
C       -0.04100000       1.45610000       0.03870000
C       -0.70070000       2.40360000       1.06950000
C       -0.05920000       3.35520000       0.03550000
C        1.20070000       2.42470000      -0.03930000
C        1.65940000       2.42090000      -1.48980000
O        0.38940000       2.41540000      -2.17300000
C       -0.52730000       2.41480000      -1.11390000
H       -1.79200000       2.38170000       1.11800000
H       -0.25930000       2.39820000       2.06770000
H       -0.06030000       4.44370000       0.02950000
H        1.93620000       2.41850000       0.76390000
H        2.23010000       3.31520000      -1.76490000
H        2.23300000       1.52920000      -1.76580000
H       -1.55560000       2.38870000      -1.46990000
