18
Properties=species:S:1:pos:R:3 gdb_6100=T pbc="F F F"
C        0.01350000       1.52830000       0.03340000
C       -0.05080000       0.00490000       0.00080000
O        0.76620000      -0.58140000       1.02050000
C       -1.48370000      -0.52060000       0.10650000
N       -1.46550000      -1.96920000       0.11000000
C       -2.62790000      -2.67970000      -0.07120000
N       -2.49710000      -4.04530000       0.17080000
O       -3.68350000      -2.16700000      -0.39640000
H        1.05190000       1.86480000      -0.02150000
H       -0.53890000       1.96400000      -0.80510000
H       -0.42650000       1.91860000       0.95970000
H        0.38470000      -0.36470000      -0.93480000
H        0.50920000      -0.18520000       1.86150000
H       -1.95510000      -0.11520000       1.01810000
H       -2.09030000      -0.18150000      -0.73710000
H       -0.71990000      -2.37410000       0.65670000
H       -1.59960000      -4.46450000      -0.02380000
H       -3.27710000      -4.57080000      -0.19480000
