19
Properties=species:S:1:pos:R:3 gdb_94054=T pbc="F F F"
O       -0.75280000       1.33230000       0.70880000
C       -0.10170000       0.17750000       0.18990000
C        0.66670000      -0.60420000       1.25880000
O       -0.28930000      -1.39450000       1.94670000
C       -1.47070000      -1.55460000       1.15350000
C       -2.68130000      -0.97340000       1.91260000
C       -2.93790000      -1.64100000       3.18140000
C       -3.15550000      -2.20710000       4.21900000
C       -1.19030000      -0.83170000      -0.18150000
H       -0.09090000       1.89150000       1.12770000
H        0.53870000       0.44220000      -0.66270000
H        1.43420000      -1.23850000       0.78580000
H        1.16960000       0.04990000       1.98190000
H       -1.63510000      -2.62780000       0.99850000
H       -2.49990000       0.09560000       2.06640000
H       -3.56720000      -1.05930000       1.26940000
H       -3.34220000      -2.69940000       5.14070000
H       -2.06880000      -0.33510000      -0.59790000
H       -0.80540000      -1.53460000      -0.92550000
