26
Properties=species:S:1:pos:R:3 gdb_57539=T pbc="F F F"
C       -0.01020000       1.57540000       0.19230000
C        0.01240000       0.04250000       0.03880000
C        0.53590000      -0.59770000       1.33850000
C       -1.42560000      -0.45000000      -0.21180000
C        0.87490000      -0.38200000      -1.17570000
C        2.36700000      -0.04390000      -1.11680000
N        3.04130000      -0.53930000      -2.31530000
C        3.09460000       0.37620000      -3.45020000
C        4.31430000       0.08880000      -2.64590000
H        0.98140000       1.98050000       0.41650000
H       -0.37150000       2.05900000      -0.72240000
H       -0.67690000       1.87140000       1.00990000
H       -0.13600000      -0.37660000       2.17510000
H        0.60220000      -1.68740000       1.24410000
H        1.52810000      -0.22360000       1.60980000
H       -1.83690000      -0.02120000      -1.13240000
H       -1.45920000      -1.54080000      -0.30780000
H       -2.08760000      -0.16610000       0.61380000
H        0.78620000      -1.46630000      -1.31570000
H        0.45330000       0.07660000      -2.08040000
H        2.51610000       1.04400000      -0.99270000
H        2.83700000      -0.53140000      -0.25540000
H        2.95890000      -0.07060000      -4.43100000
H        2.64560000       1.36200000      -3.33240000
H        4.67670000       0.88350000      -1.99490000
H        5.08640000      -0.57420000      -3.02620000
