16
Properties=species:S:1:pos:R:3 gdb_14257=T pbc="F F F"
O       -0.21640000       1.44090000       0.38640000
C       -0.02470000       0.07570000       0.10080000
C        0.34500000      -0.88920000       1.26990000
C       -0.86370000      -1.80870000       0.88050000
C       -1.33600000      -0.69480000      -0.13800000
C       -2.49910000      -0.31180000       0.82260000
C       -2.10270000      -1.50040000       1.72230000
O       -2.61330000      -2.02830000       2.66730000
H        0.64170000       1.84490000       0.55020000
H        0.66410000      -0.05770000      -0.74530000
H        1.32250000      -1.36890000       1.19060000
H        0.25720000      -0.43320000       2.25940000
H       -0.64000000      -2.84530000       0.63030000
H       -1.62210000      -0.90980000      -1.16630000
H       -2.41900000       0.67520000       1.28420000
H       -3.50150000      -0.41920000       0.39850000
