25
Properties=species:S:1:pos:R:3 gdb_60395=T pbc="F F F"
C       -0.48510000       1.35700000       0.02680000
C        0.11470000      -0.05090000      -0.05730000
C        1.26070000      -0.12330000      -1.06110000
O        0.64670000      -0.48170000       1.18900000
C       -0.31240000      -0.83780000       2.16730000
C        0.40910000      -1.51020000       3.30550000
C        1.04100000      -0.69580000       4.40900000
C       -0.15100000      -1.57030000       4.71070000
C       -1.48580000      -0.97460000       5.10790000
H        0.27730000       2.07270000       0.35180000
H       -0.85990000       1.67190000      -0.95250000
H       -1.32130000       1.40300000       0.73050000
H       -0.67820000      -0.75450000      -0.36690000
H        2.06420000       0.56010000      -0.76820000
H        1.67090000      -1.13590000      -1.09800000
H        0.91820000       0.15400000      -2.06250000
H       -0.86010000       0.04640000       2.52530000
H       -1.05860000      -1.52220000       1.72640000
H        0.96520000      -2.38660000       2.98420000
H        2.01930000      -0.98410000       4.77740000
H        0.87570000       0.37740000       4.38500000
H        0.07650000      -2.49530000       5.23500000
H       -1.66750000      -0.01090000       4.62380000
H       -2.31810000      -1.63950000       4.84990000
H       -1.52240000      -0.80500000       6.18980000
