20
Properties=species:S:1:pos:R:3 gdb_7445=T pbc="F F F"
C        0.07430000       1.49510000      -0.09090000
C       -0.01830000      -0.02780000       0.07230000
C        0.71000000      -0.52110000       1.32870000
N       -1.41080000      -0.49860000       0.03410000
C       -2.31340000      -0.17220000       1.12330000
C       -1.82560000      -1.21720000      -1.06480000
N       -3.14350000      -1.67140000      -1.01460000
O       -1.12640000      -1.41710000      -2.04630000
H        1.12290000       1.80620000      -0.13470000
H       -0.41580000       1.81210000      -1.01530000
H       -0.38940000       2.03000000       0.74600000
H        0.44070000      -0.48960000      -0.80330000
H        0.28970000      -0.09050000       2.24460000
H        0.65770000      -1.61100000       1.40830000
H        1.76490000      -0.23290000       1.28750000
H       -3.29270000       0.12700000       0.73860000
H       -2.45440000      -1.00410000       1.83020000
H       -1.91310000       0.66980000       1.69090000
H       -3.52110000      -1.95050000      -0.12210000
H       -3.32310000      -2.33290000      -1.75510000
