22
Properties=species:S:1:pos:R:3 gdb_120940=T pbc="F F F"
C       -0.03040000       1.38790000       0.13030000
O       -0.01150000      -0.01700000       0.16990000
C       -1.27010000      -0.59110000      -0.12720000
C       -1.14580000      -2.09600000      -0.00020000
C       -0.93820000      -2.70990000       1.43080000
C       -2.21890000      -3.52040000       1.21990000
N       -3.30230000      -2.52400000       1.00190000
C       -2.43460000      -2.93530000      -0.13410000
C       -3.00290000      -3.51140000      -1.39420000
H        0.97440000       1.73870000       0.38000000
H       -0.29930000       1.76710000      -0.86930000
H       -0.74460000       1.80960000       0.85570000
H       -2.04170000      -0.22060000       0.56400000
H       -1.58260000      -0.31490000      -1.15080000
H       -0.37480000      -2.45810000      -0.68700000
H       -0.03550000      -3.31990000       1.49760000
H       -0.96560000      -2.00420000       2.26440000
H       -2.45570000      -4.51070000       1.59170000
H       -4.17240000      -3.04900000       0.90760000
H       -3.47290000      -2.73790000      -2.01360000
H       -2.22190000      -3.98900000      -1.99580000
H       -3.76440000      -4.26760000      -1.17210000
