17
Properties=species:S:1:pos:R:3 gdb_70133=T pbc="F F F"
C       -0.03830000       1.50170000       0.00410000
C        0.05450000      -0.00540000       0.00620000
N       -0.78030000      -0.78510000       0.94790000
C        0.68940000      -0.75240000       1.14960000
C        1.41090000      -2.00670000       0.85900000
C        1.34750000      -2.52780000      -0.36990000
N        0.69130000      -1.88740000      -1.41900000
C        0.14550000      -0.62040000      -1.36800000
O       -0.20820000      -0.04020000      -2.37650000
H        0.82760000       1.95180000      -0.49050000
H       -0.93000000       1.82590000      -0.53920000
H       -0.08600000       1.88300000       1.02910000
H       -1.22290000      -0.12980000       1.58950000
H        1.05940000      -0.14660000       1.97320000
H        1.95770000      -2.51520000       1.64210000
H        1.81260000      -3.46850000      -0.63830000
H        0.74540000      -2.27680000      -2.34830000
