13
Properties=species:S:1:pos:R:3 gdb_130821=T pbc="F F F"
O       -0.88880000       1.29070000       0.08000000
C        0.22820000       0.96330000      -0.22270000
C        1.43700000       1.90420000      -0.33360000
O        2.49480000       1.39050000      -0.65520000
C        1.27210000       3.32480000      -0.05860000
C        2.30180000       4.25900000      -0.13080000
N        1.75860000       5.44080000       0.18960000
N        0.43250000       5.37120000       0.47360000
C        0.13400000       4.09130000       0.32460000
H        0.51360000      -0.08310000      -0.46150000
H        3.34250000       4.13670000      -0.38340000
H        2.21580000       6.33670000       0.23840000
H       -0.87080000       3.73980000       0.48960000
