19
Properties=species:S:1:pos:R:3 gdb_75362=T pbc="F F F"
C        0.28170000       1.46610000       0.03480000
C        0.03690000      -0.01080000      -0.00310000
C       -0.19040000      -0.77890000      -1.07330000
C       -0.37860000      -2.24470000      -0.75030000
C       -0.11260000      -2.29790000       0.75690000
O        1.27780000      -2.54800000       1.07510000
C        1.40330000      -1.29670000       1.78220000
C        0.02770000      -0.83210000       1.26900000
O       -0.79270000      -0.32410000       2.29280000
H        1.29080000       1.68990000       0.40380000
H        0.17540000       1.91750000      -0.95490000
H       -0.41230000       1.96430000       0.72120000
H       -0.22530000      -0.40470000      -2.09220000
H       -1.38130000      -2.60250000      -1.02060000
H        0.34000000      -2.88530000      -1.27500000
H       -0.78000000      -2.95610000       1.32370000
H        1.41720000      -1.43330000       2.87120000
H        2.28520000      -0.72800000       1.46690000
H       -1.64200000      -0.08590000       1.90470000
