16
Properties=species:S:1:pos:R:3 gdb_42985=T pbc="F F F"
O        0.09700000       0.06530000       0.22650000
C        0.02050000       1.25550000       0.06890000
C       -1.20780000       2.06620000      -0.22330000
N       -1.31050000       3.22090000       0.72500000
C       -0.76840000       3.43750000      -0.61820000
C        0.75320000       3.52030000      -0.61620000
C        1.19460000       2.23130000       0.06990000
C        2.23160000       2.11800000       1.10920000
O        2.47660000       1.68940000      -0.22510000
H       -2.10670000       1.58470000      -0.58760000
H       -2.28640000       3.50840000       0.75420000
H       -1.33910000       4.01630000      -1.33660000
H        1.13470000       3.52580000      -1.64320000
H        1.11350000       4.42070000      -0.11130000
H        2.75720000       3.01880000       1.42340000
H        2.15610000       1.32100000       1.84670000
