20
Properties=species:S:1:pos:R:3 gdb_59309=T pbc="F F F"
C       -0.14740000       1.41220000      -0.25540000
C       -0.05840000      -0.09580000       0.01180000
C        0.89180000      -0.41780000       1.17490000
C       -1.43460000      -0.66990000       0.30150000
O       -2.39210000      -0.43740000      -0.80720000
C       -2.50060000      -1.78070000      -1.05320000
N       -3.04920000      -2.42710000      -1.97810000
C       -1.65020000      -2.20080000       0.12740000
O       -0.51860000      -2.97840000      -0.16830000
H        0.83600000       1.81390000      -0.51830000
H       -0.83710000       1.62740000      -1.07560000
H       -0.49990000       1.94940000       0.63330000
H        0.31890000      -0.59560000      -0.88810000
H        1.88800000      -0.01110000       0.97570000
H        0.53520000       0.02900000       2.11090000
H        0.98800000      -1.49650000       1.31990000
H       -1.85640000      -0.25600000       1.22330000
H       -3.49460000      -1.81380000      -2.66250000
H       -2.23370000      -2.64430000       0.94440000
H       -0.73670000      -3.51450000      -0.93970000
