13
Properties=species:S:1:pos:R:3 gdb_1116=T pbc="F F F"
C       -0.14050000       1.51560000      -0.01770000
C        0.13770000       0.02170000       0.08190000
O        1.23620000      -0.44040000       0.24760000
N       -1.02710000      -0.74760000      -0.02820000
C       -1.10580000      -2.15140000      -0.13330000
N       -2.42060000      -2.59110000      -0.03820000
O       -0.17150000      -2.88090000      -0.34100000
H        0.79080000       2.05340000       0.15430000
H       -0.52620000       1.77010000      -1.01090000
H       -0.88440000       1.83220000       0.72130000
H       -1.89160000      -0.24080000      -0.14070000
H       -3.04470000      -2.10010000       0.58450000
H       -2.48590000      -3.59650000       0.02170000
