17
Properties=species:S:1:pos:R:3 gdb_19947=T pbc="F F F"
O       -0.14450000      -0.02930000       0.12180000
C       -0.10710000       1.16540000       0.09920000
C       -1.15760000       2.27590000       0.25990000
C        0.01650000       3.26530000       0.52450000
C        1.05290000       2.19250000       0.04730000
C        2.28220000       1.91310000       0.86480000
C        3.45830000       1.24510000       0.25690000
N        3.53170000       2.66540000       0.64300000
H       -1.68800000       2.46610000      -0.67920000
H       -1.89770000       2.12470000       1.04940000
H       -0.00030000       4.19910000      -0.03820000
H        0.13390000       3.49550000       1.58600000
H        1.32990000       2.35710000      -1.00320000
H        2.08450000       1.72680000       1.91910000
H        4.07050000       0.57520000       0.85310000
H        3.40660000       0.98920000      -0.79840000
H        3.43800000       3.25110000      -0.18410000
