17
Properties=species:S:1:pos:R:3 gdb_66074=T pbc="F F F"
C       -0.20200000       1.55300000       0.15310000
C       -0.01570000       0.03460000       0.05860000
C        1.04500000      -0.41070000      -1.00370000
N        2.04530000      -0.56490000       0.07620000
C        0.99030000      -0.58520000       1.10510000
C        1.31070000       0.21530000       2.35300000
O        0.47870000       0.61330000       3.12560000
C       -1.29750000      -0.65030000      -0.03290000
N       -2.31140000      -1.19940000      -0.11860000
H        0.77470000       2.04420000       0.17560000
H       -0.75500000       1.91730000      -0.71690000
H       -0.75030000       1.82340000       1.05760000
H        0.76020000      -1.34380000      -1.50310000
H        1.30340000       0.34010000      -1.75690000
H        2.61740000      -1.39920000       0.01710000
H        0.65340000      -1.58500000       1.41600000
H        2.39750000       0.41660000       2.48990000
