16
Properties=species:S:1:pos:R:3 gdb_11803=T pbc="F F F"
C       -0.22640000       1.48300000       0.00350000
C       -0.03570000      -0.02860000      -0.00470000
C        1.18690000      -0.56110000      -0.76540000
O        1.62440000      -0.52720000      -1.86980000
O        1.73760000      -1.16930000       0.33930000
C        0.64950000      -0.70490000       1.18080000
C        0.90380000      -0.24840000       2.57240000
C        0.13650000      -1.53950000       2.29660000
H        0.68340000       1.99570000       0.32830000
H       -0.47680000       1.83630000      -1.00060000
H       -1.04010000       1.77020000       0.67660000
H       -0.95000000      -0.54060000      -0.32080000
H        1.91640000      -0.34180000       2.94900000
H        0.35780000       0.61350000       2.94170000
H       -0.93310000      -1.55890000       2.47870000
H        0.64920000      -2.47430000       2.49430000
