19
Properties=species:S:1:pos:R:3 gdb_39418=T pbc="F F F"
C       -0.03230000       1.40910000      -0.07220000
C        1.33910000       0.78790000       0.08790000
C        2.06330000       0.96860000       1.40600000
O        2.71040000      -0.19010000       1.93180000
C        2.11580000      -1.45840000       1.76840000
C        0.61030000      -1.58930000       2.01570000
O       -0.11670000      -0.44800000       2.47710000
C       -0.36540000      -0.91430000       1.14470000
C        0.10760000      -0.08870000      -0.00860000
H       -0.44390000       1.90640000       0.80000000
H       -0.29710000       1.86390000      -1.02000000
H        1.97620000       0.78410000      -0.79170000
H        2.87050000       1.69790000       1.27450000
H        1.37070000       1.36270000       2.15410000
H        2.31580000      -1.86190000       0.76100000
H        2.64400000      -2.10320000       2.47860000
H        0.31590000      -2.52580000       2.49290000
H       -1.35090000      -1.36610000       1.02030000
H       -0.01440000      -0.61330000      -0.95370000
