25
Properties=species:S:1:pos:R:3 gdb_115342=T pbc="F F F"
C       -0.25450000       1.70620000       0.34720000
C       -0.00390000       0.20000000       0.22130000
C       -1.28580000      -0.58900000      -0.01370000
O       -1.85150000      -0.19030000      -1.26730000
C       -2.68020000      -1.23670000      -1.76580000
C       -2.54730000      -2.42500000      -0.78910000
C       -2.72160000      -3.79250000      -1.44630000
C       -1.19140000      -2.12660000      -0.09800000
C        0.03230000      -2.62990000      -0.87210000
H        0.68170000       2.25090000       0.50240000
H       -0.73080000       2.09110000      -0.55810000
H       -0.91460000       1.92790000       1.19340000
H        0.68970000       0.01100000      -0.60470000
H        0.47200000      -0.17910000       1.13500000
H       -1.99550000      -0.33820000       0.79670000
H       -3.71890000      -0.88910000      -1.84920000
H       -2.33810000      -1.50490000      -2.77550000
H       -3.32360000      -2.31710000      -0.02080000
H       -2.00280000      -3.94840000      -2.25660000
H       -2.59480000      -4.60330000      -0.72130000
H       -3.72500000      -3.89010000      -1.87510000
H       -1.17680000      -2.55790000       0.90950000
H        0.08110000      -2.20070000      -1.87810000
H        0.95880000      -2.36620000      -0.35410000
H        0.01370000      -3.71890000      -0.97160000
