18
Properties=species:S:1:pos:R:3 gdb_99157=T pbc="F F F"
N       -0.24030000       1.19400000      -0.16010000
C        0.24440000      -0.16870000      -0.05570000
C        0.93970000      -0.51180000       1.25870000
O        1.10330000       0.24450000       2.17830000
O        1.36700000      -1.79990000       1.25130000
C        2.02630000      -2.26700000       2.41710000
C        1.26440000      -3.21950000       3.30320000
C        2.33520000      -3.73170000       2.35910000
O        1.97450000      -4.46210000       1.22920000
H       -0.87440000       1.38250000       0.61140000
H        0.53560000       1.83570000      -0.02210000
H       -0.58600000      -0.87250000      -0.18900000
H        0.94430000      -0.38100000      -0.87260000
H        2.71610000      -1.54720000       2.83920000
H        1.45390000      -3.19160000       4.37060000
H        0.24080000      -3.43330000       3.01540000
H        3.27630000      -4.06850000       2.78500000
H        1.66370000      -3.83360000       0.56700000
