16
Properties=species:S:1:pos:R:3 gdb_20156=T pbc="F F F"
C       -0.04960000       1.57660000       0.00590000
C        1.47320000       1.77220000       0.03920000
C        1.93760000       0.97660000       1.27740000
C        2.45860000      -0.15560000       0.42750000
C        1.09600000      -0.27530000       1.07680000
C        0.06140000       0.03840000      -0.04800000
O        0.80800000      -0.13790000      -1.26630000
C        1.98460000       0.54610000      -0.85820000
H       -0.53470000       1.94950000       0.91270000
H       -0.54410000       1.97640000      -0.88280000
H        1.89210000       2.75760000      -0.15050000
H        2.27590000       1.35230000       2.23420000
H        3.27940000      -0.84620000       0.57090000
H        0.91290000      -0.98050000       1.87510000
H       -0.84850000      -0.55770000      -0.07260000
H        2.65950000       0.71390000      -1.69380000
