15
Properties=species:S:1:pos:R:3 gdb_25498=T pbc="F F F"
O        0.02290000      -0.15760000      -0.12490000
C        0.02050000       1.04330000      -0.12730000
C        1.27800000       1.90700000      -0.07170000
C        1.30630000       2.91690000      -1.19150000
C        1.81850000       2.60930000      -2.45380000
N        1.82790000       3.47730000      -3.46480000
C        1.30610000       4.67830000      -3.20780000
N        0.78900000       5.09600000      -2.05190000
C        0.79720000       4.20850000      -1.05670000
H       -0.92800000       1.62490000      -0.17430000
H        1.27090000       2.42750000       0.89520000
H        2.14630000       1.24380000      -0.09730000
H        2.24230000       1.62580000      -2.65170000
H        1.30520000       5.39280000      -4.02710000
H        0.38710000       4.54380000      -0.10460000
