17
Properties=species:S:1:pos:R:3 gdb_28222=T pbc="F F F"
C        0.08820000       1.42670000      -0.02020000
C       -0.06040000      -0.04910000       0.01610000
N       -1.14050000      -0.76510000       0.07970000
C       -0.68470000      -2.07480000       0.01630000
C        0.65580000      -2.06570000      -0.05770000
N        1.31250000      -3.28330000       0.05920000
C        0.17590000      -4.26170000      -0.10950000
C       -1.16410000      -3.48550000       0.18150000
O        1.11690000      -0.79870000      -0.05810000
H        0.73670000       1.78400000       0.78690000
H        0.52510000       1.76450000      -0.96700000
H       -0.89860000       1.87750000       0.09090000
H        2.06010000      -3.43990000      -0.60810000
H        0.16370000      -4.63950000      -1.13850000
H        0.32100000      -5.10850000       0.56420000
H       -1.52030000      -3.68570000       1.20010000
H       -1.95670000      -3.79890000      -0.50500000
