22
Properties=species:S:1:pos:R:3 gdb_22588=T pbc="F F F"
C        0.01600000       1.57650000      -0.00330000
C        0.00990000       0.04500000      -0.00280000
C        0.68690000      -0.52830000      -1.25920000
C        0.67710000      -2.06850000      -1.26630000
C        1.25180000      -2.62070000       0.01260000
C        0.68370000      -2.06260000       1.29300000
C        0.67970000      -0.52090000       1.26040000
N        2.17930000      -3.49210000      -0.09910000
O        2.64730000      -3.95340000       1.14650000
H        1.04160000       1.96450000       0.00150000
H       -0.48610000       1.97680000      -0.89040000
H       -0.49370000       1.97640000       0.87970000
H       -1.03830000      -0.29250000      -0.00560000
H        0.19100000      -0.15240000      -2.16170000
H        1.72570000      -0.17270000      -1.30000000
H       -0.36350000      -2.41280000      -1.36130000
H        1.23180000      -2.47040000      -2.11780000
H       -0.35140000      -2.42000000       1.39270000
H        1.23980000      -2.43760000       2.15210000
H        1.71610000      -0.15930000       1.30570000
H        0.17750000      -0.13910000       2.15680000
H        3.33530000      -4.57140000       0.87970000
