20
Properties=species:S:1:pos:R:3 gdb_22507=T pbc="F F F"
O        0.14030000       1.27880000       0.11810000
C       -0.00010000      -0.11890000       0.32550000
C       -1.43020000      -0.50400000      -0.02860000
C       -1.68080000      -1.99980000       0.16270000
C       -3.07620000      -2.45780000      -0.16850000
C       -3.43140000      -3.91890000      -0.01500000
O       -2.29900000      -4.63460000       0.44620000
N       -3.92460000      -1.59310000      -0.57230000
O       -5.17450000      -2.19070000      -0.83580000
H        1.04150000       1.52640000       0.34360000
H        0.70670000      -0.68710000      -0.30250000
H        0.21150000      -0.38880000       1.37380000
H       -2.12030000       0.07830000       0.58980000
H       -1.63150000      -0.21520000      -1.06490000
H       -0.98050000      -2.59130000      -0.44240000
H       -1.46510000      -2.30050000       1.19680000
H       -4.28220000      -3.99910000       0.67930000
H       -3.79030000      -4.29370000      -0.98610000
H       -2.54960000      -5.55790000       0.53640000
H       -5.70030000      -1.43790000      -1.12450000
