16
Properties=species:S:1:pos:R:3 gdb_10048=T pbc="F F F"
O        0.20210000       1.36120000       0.32150000
C        0.09430000      -0.00650000       0.00570000
C       -1.36890000      -0.52470000       0.02610000
C       -2.18760000      -0.07570000      -1.22150000
C       -2.28350000       1.36950000      -1.40210000
C       -2.37080000       2.55880000      -1.56510000
C       -1.39190000      -1.98090000       0.11310000
C       -1.38320000      -3.18230000       0.15520000
H       -0.29750000       1.86220000      -0.33460000
H        0.54340000      -0.24830000      -0.97160000
H        0.66460000      -0.54520000       0.76720000
H       -1.83960000      -0.09880000       0.92080000
H       -1.73300000      -0.52600000      -2.11250000
H       -3.19680000      -0.49560000      -1.14710000
H       -2.46380000       3.60720000      -1.70940000
H       -1.38250000      -4.24280000       0.21210000
