23
Properties=species:S:1:pos:R:3 gdb_117191=T pbc="F F F"
C        0.02890000       1.53330000       0.23580000
C       -0.01840000       0.06450000      -0.19140000
C       -1.37850000      -0.58180000       0.07080000
C       -1.45090000      -2.04430000      -0.34670000
O       -0.49010000      -2.60320000      -0.83880000
C       -2.74730000      -2.78080000      -0.13300000
C       -3.92970000      -2.05690000       0.48290000
C       -3.03100000      -3.85520000      -1.17950000
C       -2.57410000      -4.26510000       0.17890000
H        1.01220000       1.97070000       0.03740000
H       -0.71490000       2.13120000      -0.30340000
H       -0.17390000       1.64550000       1.30710000
H        0.22030000      -0.02880000      -1.25600000
H        0.75410000      -0.50800000       0.33280000
H       -1.64420000      -0.51360000       1.13550000
H       -2.17750000      -0.03480000      -0.45010000
H       -4.25130000      -1.20310000      -0.12330000
H       -4.78410000      -2.73500000       0.56720000
H       -3.70760000      -1.68750000       1.48990000
H       -4.06990000      -4.00680000      -1.45180000
H       -2.31470000      -3.93240000      -1.98860000
H       -1.55340000      -4.61530000       0.27470000
H       -3.29120000      -4.70520000       0.86340000
