16
Properties=species:S:1:pos:R:3 gdb_45713=T pbc="F F F"
O       -0.11080000      -0.04190000      -0.17300000
C       -0.03410000       1.15610000      -0.04210000
N       -1.10770000       2.03960000       0.03100000
C       -0.68490000       3.35430000       0.30660000
C        0.64690000       3.43420000       0.25070000
C        1.72950000       4.28740000       0.83040000
O        2.73850000       3.33990000       1.23030000
C        2.22260000       2.00630000       1.15460000
C        1.20770000       2.05890000       0.00060000
H       -2.06310000       1.72140000       0.04210000
H       -1.41790000       4.10170000       0.57710000
H        2.19250000       4.97700000       0.11290000
H        1.38820000       4.87570000       1.69340000
H        3.06750000       1.33710000       0.97960000
H        1.72830000       1.71580000       2.09360000
H        1.72940000       1.96400000      -0.95970000
