17
Properties=species:S:1:pos:R:3 gdb_32499=T pbc="F F F"
C        0.04540000       1.34080000       0.11340000
N       -0.18050000      -0.07060000      -0.12080000
C        0.54230000      -0.69590000      -1.12680000
C        1.18870000      -0.12550000      -2.20190000
N        1.71770000      -1.15680000      -2.96280000
C        1.43690000      -2.35620000      -2.39450000
C        0.70390000      -2.12400000      -1.24040000
C        0.20820000      -3.07280000      -0.32210000
C       -0.22680000      -3.84200000       0.49970000
H        1.10500000       1.59510000       0.28400000
H       -0.30180000       1.92300000      -0.74870000
H       -0.53570000       1.66060000       0.98150000
H       -0.23510000      -0.63050000       0.71830000
H        1.30940000       0.90250000      -2.49590000
H        2.24020000      -1.03090000      -3.81060000
H        1.76770000      -3.28580000      -2.82720000
H       -0.61460000      -4.53450000       1.20410000
