19
Properties=species:S:1:pos:R:3 gdb_8556=T pbc="F F F"
C       -0.03940000       1.48370000       0.04060000
C        0.06080000      -0.01110000      -0.02660000
C        0.02460000      -0.89630000      -1.26370000
N       -0.28280000      -2.08860000      -0.38220000
C        1.01490000      -2.21720000       0.38780000
C        0.72090000      -0.89110000       1.07360000
C        1.33400000      -0.34690000       2.32940000
C       -0.72690000      -1.07350000       0.69630000
H        0.87480000       1.96200000      -0.33090000
H       -0.87440000       1.84620000      -0.56990000
H       -0.20390000       1.83860000       1.06270000
H       -0.83950000      -0.68140000      -1.90040000
H        0.92020000      -1.00780000      -1.88780000
H        0.94650000      -3.06380000       1.07830000
H        1.90910000      -2.32730000      -0.23840000
H        2.37160000      -0.03330000       2.16340000
H        0.78580000       0.51970000       2.71170000
H        1.33990000      -1.10540000       3.12070000
H       -1.66140000      -1.09360000       1.24090000
