16
Properties=species:S:1:pos:R:3 gdb_32865=T pbc="F F F"
C       -0.08470000       1.43940000       0.01440000
C       -0.00820000      -0.07410000       0.03120000
O       -1.36010000      -0.57070000      -0.03430000
C       -1.53320000      -1.88140000      -0.03230000
N       -2.68060000      -2.48550000      -0.08660000
C       -2.33280000      -3.82530000      -0.05730000
O       -3.27700000      -4.78160000      -0.09820000
C       -0.99030000      -3.97470000       0.01330000
O       -0.45800000      -2.68050000       0.03000000
H        0.92410000       1.85930000       0.06290000
H       -0.56500000       1.79330000      -0.90160000
H       -0.65640000       1.80840000       0.87000000
H        0.55740000      -0.46120000      -0.82320000
H        0.46620000      -0.44620000       0.94570000
H       -4.12580000      -4.32520000      -0.14590000
H       -0.29660000      -4.79160000       0.05610000
