19
Properties=species:S:1:pos:R:3 gdb_39727=T pbc="F F F"
C        0.01890000       1.50830000      -0.00040000
N        1.25540000       0.69220000       0.05540000
C       -0.04910000       0.03280000      -0.00490000
C       -0.51620000      -0.85120000       1.12340000
C       -1.75090000      -1.53350000       0.63800000
C       -2.02160000      -1.03670000      -0.78130000
C       -0.53930000      -0.82990000      -1.16900000
C        0.04930000      -2.18870000      -0.73460000
N       -0.45800000      -2.26440000       0.66120000
H       -0.19600000       2.06940000       0.90510000
H       -0.21700000       2.03410000      -0.92260000
H        1.70040000       0.67850000      -0.86010000
H       -0.28420000      -0.64730000       2.16090000
H       -2.53330000      -1.89520000       1.29380000
H       -2.52790000      -1.78050000      -1.40480000
H       -2.59930000      -0.10800000      -0.79810000
H       -0.32510000      -0.47220000      -2.17540000
H       -0.32730000      -3.03590000      -1.31530000
H        1.14270000      -2.21100000      -0.73240000
