15
Properties=species:S:1:pos:R:3 gdb_21214=T pbc="F F F"
C       -0.08420000       1.46860000       0.00120000
N        0.01280000       0.02050000       0.12450000
C       -1.16550000      -0.70650000       0.05020000
N       -2.38530000      -0.17700000       0.08860000
N       -3.18210000      -1.25030000       0.04400000
N       -2.57470000      -2.43560000      -0.02790000
C       -1.28580000      -2.11800000      -0.02280000
N       -0.24050000      -3.04000000      -0.14420000
H        0.91800000       1.89710000       0.07610000
H       -0.54750000       1.79660000      -0.94080000
H       -0.69240000       1.85960000       0.82080000
H        0.73250000      -0.38510000      -0.46040000
H       -4.18230000      -1.16490000       0.02370000
H       -0.59570000      -3.98870000      -0.16140000
H        0.43320000      -2.95040000       0.60930000
