13
Properties=species:S:1:pos:R:3 gdb_1706=T pbc="F F F"
N       -0.01100000       1.50400000      -0.03370000
C       -0.00430000       0.04730000      -0.00710000
C        0.12900000      -0.52640000       1.43170000
O       -1.24450000      -0.94510000       1.44460000
C       -1.43380000      -0.55840000       0.07480000
C        0.88030000      -0.55680000      -1.01170000
N        1.58830000      -0.99060000      -1.81700000
H        0.93020000       1.85950000       0.11560000
H       -0.29900000       1.83440000      -0.95150000
H        0.82260000      -1.36850000       1.53220000
H        0.34350000       0.23790000       2.18580000
H       -2.22810000       0.18530000      -0.04700000
H       -1.61080000      -1.41830000      -0.58070000
