18
Properties=species:S:1:pos:R:3 gdb_121485=T pbc="F F F"
C       -0.24350000       1.43630000       0.14520000
C        0.05920000      -0.03150000       0.02420000
O        1.13540000      -0.52920000      -0.15330000
O       -1.10770000      -0.75520000       0.14820000
C       -1.02820000      -2.12160000       0.05680000
N       -2.08180000      -2.79160000       0.17510000
C       -1.98580000      -4.24150000       0.09600000
C       -2.73410000      -4.84020000       1.29150000
O       -4.07830000      -4.41450000       1.32140000
H        0.68040000       2.00610000       0.05830000
H       -0.94670000       1.73530000      -0.63740000
H       -0.72460000       1.63880000       1.10630000
H       -0.01790000      -2.49530000      -0.11940000
H       -2.49220000      -4.56310000      -0.82220000
H       -0.94700000      -4.60700000       0.06590000
H       -2.73930000      -5.93280000       1.21580000
H       -2.20130000      -4.57150000       2.21910000
H       -4.05320000      -3.46020000       1.17480000
