16
Properties=species:S:1:pos:R:3 gdb_51404=T pbc="F F F"
O       -0.09510000      -0.07520000       0.33130000
C       -0.04920000       1.11040000       0.09070000
N        1.08730000       1.82430000      -0.16550000
C        2.38920000       1.21590000      -0.17470000
C        3.38910000       1.54580000      -1.34660000
C        3.62060000       2.93540000      -0.64830000
C        3.58280000       1.93260000       0.56220000
C        4.46140000       1.06510000      -0.35460000
O        5.46050000       0.41990000      -0.32520000
H       -0.94800000       1.75660000       0.05260000
H        0.98360000       2.80830000      -0.35070000
H        2.24180000       0.16180000       0.05360000
H        3.27160000       1.33510000      -2.40660000
H        4.56580000       3.44240000      -0.84700000
H        2.79250000       3.64260000      -0.70780000
H        3.68050000       2.15170000       1.62250000
