15
Properties=species:S:1:pos:R:3 gdb_1550=T pbc="F F F"
C        0.67280000       1.33550000      -0.09040000
O        0.75220000      -0.07050000      -0.16130000
C       -0.18140000      -0.63360000      -1.04280000
C        0.07350000      -2.14510000      -1.10310000
N       -0.96490000      -2.78380000      -1.91250000
C        1.44570000      -2.42680000      -1.57850000
N        2.48620000      -2.69170000      -2.00720000
H        0.85840000       1.80140000      -1.07010000
H       -0.31180000       1.66970000       0.27150000
H        1.44050000       1.66740000       0.61150000
H       -1.21650000      -0.47890000      -0.70260000
H       -0.09030000      -0.19900000      -2.05310000
H       -0.00600000      -2.52780000      -0.07980000
H       -0.84050000      -2.53670000      -2.89060000
H       -0.87120000      -3.79330000      -1.86120000
