23
Properties=species:S:1:pos:R:3 gdb_113851=T pbc="F F F"
C       -0.50420000       1.54220000       0.45640000
C        0.20860000       0.32110000      -0.13870000
C        1.06450000      -0.38130000       0.88880000
O        0.39000000      -1.14230000       1.89900000
C        1.25920000      -1.83890000       0.99390000
C        0.65050000      -2.86830000       0.08700000
C        1.53360000      -3.45290000      -1.05500000
C        0.92050000      -4.84900000      -0.76420000
C        0.48060000      -4.32040000       0.62740000
H        0.21550000       2.27160000       0.84400000
H       -1.11920000       2.04580000      -0.29520000
H       -1.15320000       1.24060000       1.28390000
H       -0.53060000      -0.37290000      -0.54880000
H        0.85250000       0.63210000      -0.97180000
H        1.86860000       0.24290000       1.28970000
H        2.19220000      -2.16900000       1.46140000
H       -0.30160000      -2.50700000      -0.30900000
H        1.41330000      -3.03070000      -2.05560000
H        2.59590000      -3.41750000      -0.79020000
H        0.06120000      -5.05380000      -1.40900000
H        1.58820000      -5.71310000      -0.79310000
H        1.22620000      -4.54310000       1.39780000
H       -0.50340000      -4.60770000       1.00400000
