19
Properties=species:S:1:pos:R:3 gdb_112344=T pbc="F F F"
C        0.05960000       1.55620000       0.04220000
C       -0.03490000       0.03020000      -0.02660000
C        0.67870000      -0.55320000      -1.25140000
O        2.06710000      -0.20530000      -1.21790000
C        2.84190000      -1.34310000      -1.25840000
O        4.03960000      -1.30450000      -1.23330000
C        1.92290000      -2.49720000      -1.33710000
C        0.65990000      -2.06330000      -1.34020000
C       -0.60690000      -2.84650000      -1.42320000
H        1.10370000       1.87650000       0.07340000
H       -0.41000000       2.02110000      -0.83170000
H       -0.44450000       1.93670000       0.93510000
H        0.40350000      -0.42070000       0.87150000
H       -1.08600000      -0.28120000      -0.06190000
H        0.24840000      -0.11250000      -2.16380000
H        2.28280000      -3.51480000      -1.38800000
H       -0.40860000      -3.91300000      -1.54900000
H       -1.21270000      -2.71530000      -0.51880000
H       -1.22280000      -2.50780000      -2.26510000
