19
Properties=species:S:1:pos:R:3 gdb_94624=T pbc="F F F"
O        0.10260000       1.43040000      -0.11500000
C        0.04710000       0.02780000      -0.00970000
C       -0.03940000      -0.58010000       1.40910000
O       -1.33390000      -1.14900000       1.13030000
C       -1.37890000      -0.54360000      -0.18940000
C       -2.52090000       0.45340000      -0.33240000
C       -3.85740000      -0.23540000      -0.19950000
C       -5.03720000       0.19270000      -0.95840000
O       -4.30680000      -0.97260000      -1.34470000
H        1.01830000       1.70930000      -0.02100000
H        0.79460000      -0.45060000      -0.65380000
H        0.70120000      -1.34800000       1.66400000
H       -0.07570000       0.17500000       2.20510000
H       -1.46410000      -1.31730000      -0.96210000
H       -2.42410000       1.23190000       0.43130000
H       -2.45400000       0.93950000      -1.31190000
H       -4.01620000      -0.75390000       0.74600000
H       -6.03560000       0.01070000      -0.56260000
H       -4.95730000       1.04110000      -1.63780000
