25
Properties=species:S:1:pos:R:3 gdb_118748=T pbc="F F F"
C        0.19340000       1.60500000       0.13910000
C        0.09060000       0.09010000       0.04600000
C        1.06910000      -0.66410000      -0.89740000
C        1.26700000      -1.76010000       0.19890000
C        0.36800000      -2.97530000      -0.05590000
C        2.72340000      -2.15910000       0.45300000
C        2.94740000      -3.03060000       1.68450000
O        4.35140000      -3.17360000       1.85760000
C        0.63140000      -0.76480000       1.22600000
H        1.22070000       1.91530000       0.36320000
H       -0.10070000       2.08430000      -0.80180000
H       -0.45360000       2.00140000       0.93010000
H       -0.94380000      -0.19040000      -0.17950000
H        0.68560000      -0.99580000      -1.86700000
H        1.98640000      -0.09000000      -1.06650000
H        0.74900000      -3.57620000      -0.89000000
H        0.30160000      -3.62530000       0.82320000
H       -0.65220000      -2.66790000      -0.30870000
H        3.12480000      -2.68250000      -0.42490000
H        3.33010000      -1.25400000       0.57860000
H        2.48590000      -2.55540000       2.56600000
H        2.46720000      -4.01230000       1.55530000
H        4.50290000      -3.74680000       2.61450000
H        1.39680000      -0.22510000       1.79450000
H       -0.09920000      -1.17140000       1.93180000
