20
Properties=species:S:1:pos:R:3 gdb_126738=T pbc="F F F"
C        0.05080000       1.47800000       0.08560000
C       -0.11120000      -0.02530000      -0.14500000
N        0.70690000      -0.51560000      -1.23680000
C        1.80440000      -1.29900000      -1.17800000
C        2.26690000      -1.46340000      -2.46850000
C        1.35870000      -0.71420000      -3.25780000
N        1.38840000      -0.50000000      -4.62790000
C        2.01100000      -1.49990000      -5.47590000
N        0.41040000      -0.14620000      -2.51060000
H        1.08170000       1.72260000       0.35860000
H       -0.20380000       2.02530000      -0.82480000
H       -0.61020000       1.81040000       0.89210000
H        0.17170000      -0.59100000       0.74770000
H       -1.15630000      -0.26170000      -0.37160000
H        2.17070000      -1.68180000      -0.23770000
H        3.12190000      -2.03590000      -2.78610000
H        0.49880000      -0.16330000      -4.96810000
H        3.08280000      -1.56120000      -5.25940000
H        1.58540000      -2.51000000      -5.36300000
H        1.90710000      -1.19410000      -6.51990000
