15
Properties=species:S:1:pos:R:3 gdb_131206=T pbc="F F F"
O        0.16850000       1.39080000       0.16210000
C        0.07750000       0.03630000       0.01420000
C        0.18550000      -0.76700000      -1.09890000
O        0.49670000      -0.66990000      -2.41680000
C        0.27170000      -1.99980000      -2.95900000
C        0.28780000      -2.98160000      -1.75300000
N       -0.01870000      -2.04020000      -0.69980000
N       -0.22010000      -2.16200000       0.62800000
C       -0.17940000      -0.89500000       1.05490000
H        0.40150000       1.78060000      -0.68590000
H       -0.70590000      -2.00810000      -3.45290000
H        1.05290000      -2.19920000      -3.69300000
H       -0.46910000      -3.76340000      -1.84780000
H        1.26760000      -3.44980000      -1.59960000
H       -0.34670000      -0.66630000       2.09710000
