20
Properties=species:S:1:pos:R:3 gdb_15438=T pbc="F F F"
C       -0.30070000       1.33900000      -0.03670000
O       -0.24980000      -0.05890000      -0.17600000
C        0.81470000      -0.48880000      -1.00150000
C        0.81000000      -1.99490000      -1.02880000
C       -0.04470000      -2.75240000      -2.01320000
C        1.45730000      -2.80630000      -2.13000000
C        2.16680000      -2.18840000      -3.30700000
O        2.17220000      -3.14830000      -4.35700000
H        0.62150000       1.74140000       0.41370000
H       -0.45350000       1.84380000      -1.00470000
H       -1.14340000       1.57340000       0.61840000
H        0.69950000      -0.07080000      -2.01530000
H        1.77360000      -0.10970000      -0.60490000
H        0.88780000      -2.42420000      -0.03380000
H       -0.57710000      -3.63430000      -1.67600000
H       -0.57770000      -2.16850000      -2.75750000
H        1.92800000      -3.73030000      -1.80550000
H        1.65860000      -1.26450000      -3.62280000
H        3.19620000      -1.91400000      -3.02330000
H        2.69650000      -2.79360000      -5.08120000
