19
Properties=species:S:1:pos:R:3 gdb_37437=T pbc="F F F"
C       -0.04060000       1.54860000       0.02010000
C        1.39970000       2.12830000       0.00890000
C        2.42720000       0.95920000      -0.03100000
C        2.12620000       0.05500000       1.15460000
C        0.88720000      -0.44370000       1.16420000
C        0.02800000      -0.00650000      -0.01240000
C        0.79370000      -0.42200000      -1.28200000
O        1.15460000       0.61560000      -2.20950000
C        2.14610000       0.12230000      -1.29250000
H       -0.58270000       1.85330000       0.91920000
H       -0.60120000       1.90390000      -0.84710000
H        1.54630000       2.76840000      -0.86370000
H        1.59150000       2.72850000       0.90230000
H        3.45160000       1.33730000      -0.01820000
H        2.85920000      -0.11820000       1.93450000
H        0.48910000      -1.07230000       1.95280000
H       -0.97240000      -0.44350000       0.01600000
H        0.55650000      -1.38060000      -1.73780000
H        2.97510000      -0.40700000      -1.75650000
