18
Properties=species:S:1:pos:R:3 gdb_121707=T pbc="F F F"
C       -0.04180000       1.42370000       0.07830000
C        0.01900000      -0.09030000      -0.01450000
O        0.70170000      -0.43670000      -1.20800000
C        0.81300000      -1.81180000      -1.39230000
C        1.54880000      -2.08690000      -2.68740000
O        1.98140000      -1.28320000      -3.45810000
O        1.64270000      -3.45190000      -2.83920000
C        2.27870000      -3.93360000      -3.95680000
N        2.36300000      -5.18050000      -4.09360000
H        0.96610000       1.84710000       0.09600000
H       -0.57290000       1.83900000      -0.78250000
H       -0.56400000       1.72690000       0.99050000
H        0.54490000      -0.51460000       0.85710000
H       -0.99540000      -0.52270000      -0.02170000
H        1.36700000      -2.30680000      -0.57580000
H       -0.16840000      -2.31430000      -1.44650000
H        2.64420000      -3.14140000      -4.61040000
H        2.85420000      -5.39920000      -4.95910000
