25
Properties=species:S:1:pos:R:3 gdb_101028=T pbc="F F F"
C       -0.26490000       1.63150000       0.07900000
C       -0.11050000       0.10690000       0.10520000
C        0.73770000      -0.48960000       1.23080000
C        2.06850000       0.14430000       1.56770000
C        0.91320000       0.25470000       2.53440000
C        0.68270000      -2.01730000       1.35460000
C       -0.69130000      -2.54710000       1.79110000
C        1.16580000      -2.71440000       0.07920000
O        1.35610000      -4.09190000       0.38000000
H        0.69910000       2.14700000       0.02360000
H       -0.84400000       1.93250000      -0.79950000
H       -0.79540000       2.00230000       0.96100000
H       -1.11360000      -0.33440000       0.14910000
H        0.31430000      -0.21410000      -0.85520000
H        2.89320000      -0.51210000       1.82670000
H        2.37350000       1.04090000       1.03890000
H        0.44820000       1.22560000       2.65720000
H        0.95340000      -0.33030000       3.44760000
H        1.40410000      -2.29900000       2.13340000
H       -1.46540000      -2.33250000       1.04610000
H       -0.64910000      -3.63110000       1.91950000
H       -1.00300000      -2.09500000       2.73770000
H        0.42490000      -2.59030000      -0.72620000
H        2.10570000      -2.25070000      -0.25990000
H        1.57830000      -4.54970000      -0.43560000
