14
Properties=species:S:1:pos:R:3 gdb_2422=T pbc="F F F"
C        0.00940000       1.47660000      -0.06010000
C        0.01470000      -0.01930000      -0.05700000
N        0.60410000      -0.87840000      -1.14280000
C        0.08290000      -1.88510000      -0.16250000
C        0.50390000      -1.01130000       1.05030000
O       -0.78580000      -1.08980000       1.72290000
C       -1.13550000      -1.03000000       0.30990000
H        1.02620000       1.86690000      -0.16570000
H       -0.59460000       1.87060000      -0.88450000
H       -0.41290000       1.84460000       0.88030000
H        0.00680000      -0.85470000      -1.97380000
H        0.16530000      -2.96370000      -0.29390000
H        1.41670000      -1.01480000       1.64410000
H       -2.18880000      -1.05660000       0.02410000
