20
Properties=species:S:1:pos:R:3 gdb_82780=T pbc="F F F"
C       -0.21690000       1.59130000       0.00140000
C        0.04330000       0.09130000       0.00580000
C        1.05700000      -0.57200000      -0.98660000
C        2.32410000       0.27960000      -1.12960000
N        3.08530000       0.12410000       0.12090000
C        2.30710000      -0.05390000       1.36130000
C        2.88950000      -1.22450000       0.62060000
C        1.46020000      -1.60310000       0.14400000
C        0.85510000      -0.57020000       1.13850000
H        0.69270000       2.16910000       0.19200000
H       -0.63190000       1.92500000      -0.95660000
H       -0.93910000       1.85600000       0.78200000
H       -0.91250000      -0.44100000      -0.07440000
H        0.66370000      -0.94140000      -1.93550000
H        2.96110000      -0.08820000      -1.94220000
H        2.11720000       1.33580000      -1.32210000
H        2.66510000       0.47310000       2.23890000
H        3.73660000      -1.86850000       0.82650000
H        1.12530000      -2.63520000       0.08420000
H        0.37030000      -0.87730000       2.06740000
