22
Properties=species:S:1:pos:R:3 gdb_118421=T pbc="F F F"
C       -0.36250000       1.43780000      -0.09280000
C       -0.18820000      -0.07720000       0.04450000
C        0.78300000      -0.51270000       1.16980000
C        0.25200000      -0.19180000       2.57390000
C        1.27570000      -0.44330000       3.68300000
O        0.77670000      -0.10980000       4.96890000
C        1.00650000      -2.02430000       1.03230000
N        2.11410000      -2.38740000       0.32270000
O        0.22980000      -2.84480000       1.48600000
H        0.59840000       1.93400000      -0.27070000
H       -1.01800000       1.67320000      -0.93700000
H       -0.80670000       1.88490000       0.80100000
H       -1.15750000      -0.55700000       0.22320000
H        0.18070000      -0.48000000      -0.90700000
H        1.73880000       0.00880000       1.01450000
H       -0.06630000       0.85330000       2.63260000
H       -0.62880000      -0.82100000       2.74880000
H        1.61990000      -1.48810000       3.64910000
H        2.15520000       0.19490000       3.53560000
H        0.04760000      -0.70860000       5.15980000
H        2.77470000      -1.71700000      -0.02760000
H        2.28520000      -3.36760000       0.16780000
