16
Properties=species:S:1:pos:R:3 gdb_8822=T pbc="F F F"
C       -0.10240000       1.48660000       0.87020000
N        0.18110000       0.08800000       1.13660000
C        0.87680000      -0.68640000       0.27240000
O        1.32710000      -0.30530000      -0.79160000
C        1.08670000      -2.17100000       0.68390000
C        2.57150000      -2.55840000       0.52720000
C        0.57800000      -2.48610000       2.01740000
N        0.16580000      -2.69130000       3.07860000
H        0.32300000       1.73010000      -0.10350000
H       -1.18160000       1.67050000       0.84870000
H        0.34910000       2.13100000       1.63180000
H       -0.13820000      -0.31720000       2.00280000
H        0.49860000      -2.75010000      -0.03900000
H        2.89670000      -2.25890000      -0.46960000
H        3.18710000      -2.04390000       1.26940000
H        2.70390000      -3.63520000       0.65100000
