21
Properties=species:S:1:pos:R:3 gdb_66251=T pbc="F F F"
O        0.08920000       1.27040000      -0.26970000
C       -0.04250000      -0.14300000      -0.12840000
C        0.84390000      -0.86910000      -1.17910000
C        2.19460000      -1.05760000      -0.44210000
O        2.03750000      -0.45900000       0.85090000
C        0.65670000      -0.57700000       1.16980000
C       -1.51040000      -0.49320000      -0.19670000
C       -2.54960000       0.40750000       0.42290000
C       -2.45550000       0.28380000      -1.07740000
H        0.99030000       1.48680000      -0.00160000
H        0.40950000      -1.83190000      -1.46150000
H        0.92580000      -0.25650000      -2.07840000
H        2.44020000      -2.12350000      -0.33060000
H        3.03850000      -0.56450000      -0.93140000
H        0.43650000       0.08250000       2.01170000
H        0.39390000      -1.61350000       1.43910000
H       -1.69190000      -1.56190000      -0.12210000
H       -3.38820000      -0.05480000       0.93180000
H       -2.19980000       1.33440000       0.86070000
H       -2.04690000       1.12990000      -1.61620000
H       -3.22910000      -0.26470000      -1.60330000
