20
Properties=species:S:1:pos:R:3 gdb_10231=T pbc="F F F"
C        0.16930000       1.47450000      -0.17700000
C       -0.18570000       0.01580000      -0.41160000
O        0.89300000      -0.59120000      -1.10700000
C        0.83970000      -2.00290000      -1.25510000
C       -0.48530000      -2.52170000      -1.84230000
O       -0.87460000      -1.86420000      -3.02780000
C        2.03340000      -2.32000000      -2.15940000
O        1.92290000      -1.63050000      -3.40340000
H        1.08150000       1.56090000       0.42030000
H        0.33290000       1.98640000      -1.12980000
H       -0.64300000       1.98270000       0.35100000
H       -0.35000000      -0.49870000       0.54900000
H       -1.10810000      -0.06470000      -1.00120000
H        0.98870000      -2.49780000      -0.27830000
H       -0.37460000      -3.61100000      -1.98510000
H       -1.29880000      -2.38380000      -1.12220000
H       -0.08520000      -1.82620000      -3.58700000
H        2.96510000      -2.04380000      -1.64650000
H        2.07000000      -3.38890000      -2.38870000
H        1.80590000      -0.70220000      -3.16010000
