15
Properties=species:S:1:pos:R:3 gdb_79554=T pbc="F F F"
C       -0.19510000       1.46170000      -0.14680000
N        0.09870000       0.04180000       0.01680000
C        1.41340000      -0.53040000      -0.16240000
C        2.53180000       0.32940000       0.41560000
O        3.10220000      -0.35570000       1.53410000
C        1.85910000       0.33780000       1.74010000
C        1.81230000       1.35840000       2.74020000
N        1.72580000       2.17720000       3.55220000
C        0.71860000      -0.52110000       1.19150000
H        0.57350000       2.14280000       0.23980000
H       -0.33270000       1.66180000      -1.21320000
H       -1.13650000       1.67950000       0.36510000
H        1.54600000      -1.36390000      -0.84150000
H        3.12940000       1.10920000      -0.04000000
H        0.23810000      -1.33390000       1.72190000
