19
Properties=species:S:1:pos:R:3 gdb_96637=T pbc="F F F"
C        0.09410000       0.78410000       0.59890000
N       -0.56560000       0.22710000      -0.58530000
H       -1.43250000      -0.23350000      -0.34300000
C        0.18210000      -0.58120000      -1.45790000
N        1.34180000       0.06610000      -1.91790000
C       -0.19240000      -1.82520000      -1.81050000
C        0.40950000      -2.65070000      -2.91330000
C        3.11140000      -1.82340000      -0.14640000
O        2.80960000      -1.45350000       0.91340000
O        3.43750000      -2.21130000      -1.19400000
H        0.43840000       0.01750000       1.30850000
H        0.96330000       1.37050000       0.29760000
H       -0.60590000       1.45080000       1.11030000
H        1.16430000       1.01940000      -2.21290000
H        1.83460000      -0.45150000      -2.63160000
H       -1.01620000      -2.26870000      -1.25830000
H       -0.36380000      -3.22220000      -3.43960000
H        0.90960000      -2.03040000      -3.66750000
H        1.15250000      -3.37680000      -2.55670000
