19
Properties=species:S:1:pos:R:3 gdb_51094=T pbc="F F F"
O       -0.16810000       0.03920000      -0.26650000
C       -0.03820000       1.22670000      -0.05360000
N        1.15450000       1.85280000       0.13260000
C        2.41680000       1.16770000       0.04210000
C        2.95570000       0.50660000      -1.25670000
N        4.32280000       0.67060000      -0.62060000
C        3.75470000       1.93750000      -0.01290000
C        4.17350000      -0.26180000       0.54400000
C        2.74410000       0.07210000       1.08100000
H       -0.89290000       1.92940000       0.01070000
H        1.15480000       2.85470000       0.24110000
H        2.66090000      -0.51940000      -1.48360000
H        2.86860000       1.14220000      -2.14060000
H        3.77310000       2.74620000      -0.74860000
H        4.22080000       2.25860000       0.92370000
H        4.27390000      -1.29230000       0.19590000
H        4.96510000      -0.06500000       1.27100000
H        2.74240000       0.46370000       2.10220000
H        2.03960000      -0.75780000       1.02030000
