19
Properties=species:S:1:pos:R:3 gdb_100393=T pbc="F F F"
C        0.69170000      -0.58270000       1.38910000
C        0.10510000       0.02860000       0.11290000
C        0.84420000      -0.37510000      -1.19050000
O        2.23310000      -0.06290000      -1.12170000
C        0.60790000      -1.84990000      -1.56540000
C        1.54120000      -2.30080000      -2.67100000
O        2.26340000      -3.26050000      -2.59310000
C        0.30720000       0.55220000      -2.28290000
O       -0.68780000       0.33750000      -2.92370000
H        0.64990000      -1.67620000       1.38600000
H        1.73310000      -0.27740000       1.53550000
H        0.13060000      -0.23700000       2.26170000
H       -0.95010000      -0.24480000       0.00440000
H        0.14230000       1.12190000       0.19670000
H        2.64970000      -0.65160000      -0.48370000
H        0.74740000      -2.51420000      -0.70880000
H       -0.42550000      -1.94220000      -1.92270000
H        1.51130000      -1.67710000      -3.59150000
H        0.91000000       1.47790000      -2.40400000
