21
Properties=species:S:1:pos:R:3 gdb_92015=T pbc="F F F"
C        0.11420000       1.56480000      -0.00520000
C        0.00250000       0.04040000      -0.01700000
C        0.45160000      -0.54500000      -1.37790000
C        0.51980000      -2.06310000      -1.35990000
N        1.86030000      -2.65510000      -1.20450000
C        0.90480000      -2.72970000      -0.08250000
C        1.14470000      -1.88880000       1.14090000
C        2.11840000      -0.76100000       1.11770000
N        0.68270000      -0.49110000       1.17120000
H        1.15710000       1.87630000      -0.13080000
H       -0.46970000       2.00460000      -0.82020000
H       -0.24820000       1.96830000       0.94370000
H       -1.05390000      -0.23040000       0.12160000
H       -0.25670000      -0.20830000      -2.14210000
H        1.43010000      -0.14250000      -1.66110000
H       -0.18630000      -2.58820000      -1.99820000
H        1.90610000      -3.55380000      -1.67730000
H        0.46010000      -3.69950000       0.12560000
H        0.98270000      -2.41400000       2.08000000
H        2.67230000      -0.50340000       2.01670000
H        2.66090000      -0.61340000       0.18870000
