20
Properties=species:S:1:pos:R:3 gdb_94212=T pbc="F F F"
C       -0.01860000       1.59090000       0.13350000
C       -0.01760000       0.06410000       0.03640000
C       -1.43960000      -0.47990000      -0.20210000
C       -2.02020000      -0.03440000      -1.46810000
N       -2.45860000       0.32240000      -2.47640000
C        1.10690000      -0.47620000      -0.90240000
C        2.01310000      -0.68080000       0.34310000
C        0.73560000      -0.61250000       1.21980000
O        0.73700000       0.13480000       2.41110000
H        0.99090000       1.98010000       0.28620000
H       -0.41750000       2.02910000      -0.78670000
H       -0.62920000       1.92900000       0.97560000
H       -1.42870000      -1.57600000      -0.20110000
H       -2.10100000      -0.16650000       0.61500000
H        0.83290000      -1.42240000      -1.37730000
H        1.46300000       0.20810000      -1.67450000
H        2.61320000      -1.59200000       0.39350000
H        2.65830000       0.18120000       0.52960000
H        0.33710000      -1.62480000       1.39110000
H        1.24780000      -0.34260000       3.07240000
