18
Properties=species:S:1:pos:R:3 gdb_111205=T pbc="F F F"
O        0.16660000       1.47730000      -0.00250000
C        0.15380000       0.05910000       0.07510000
C       -1.26640000      -0.47750000       0.13830000
C       -2.15540000      -0.65620000      -1.14360000
C       -1.31090000      -1.91190000      -1.52540000
C       -1.60230000      -1.99810000       0.00340000
N       -3.01640000      -1.54690000      -0.28740000
C       -4.04410000      -2.32730000      -0.75750000
O       -4.78870000      -2.02300000      -1.66300000
H       -0.23400000       1.73270000      -0.83970000
H        0.74000000      -0.38770000      -0.73930000
H        0.66880000      -0.18700000       1.01030000
H       -1.80820000       0.00400000       0.95570000
H       -2.59750000       0.09640000      -1.79370000
H       -1.82110000      -2.64460000      -2.15190000
H       -0.27800000      -1.76260000      -1.84260000
H       -1.39140000      -2.80720000       0.70320000
H       -4.17960000      -3.23990000      -0.14080000
