14
Properties=species:S:1:pos:R:3 gdb_2024=T pbc="F F F"
O       -0.01220000       0.21360000      -0.72320000
C       -0.01410000       1.25890000      -0.14370000
C       -1.13710000       2.19200000       0.36080000
C       -0.02950000       3.19260000       0.74460000
C       -0.06280000       4.66200000       0.59880000
N        0.02470000       4.03130000       1.93470000
C        1.08980000       2.21190000       0.35140000
H       -1.86120000       2.50270000      -0.39830000
H       -1.68190000       1.76580000       1.21160000
H        0.82980000       5.20060000       0.29130000
H       -0.99890000       5.12740000       0.29960000
H       -0.88480000       4.05710000       2.39030000
H        1.65230000       1.81500000       1.20310000
H        1.79720000       2.53930000      -0.41590000
