17
Properties=species:S:1:pos:R:3 gdb_25688=T pbc="F F F"
C       -0.04750000       1.46320000      -0.01670000
C       -0.00240000       0.00950000      -0.01150000
C        0.02740000      -1.19630000      -0.00760000
C        0.06590000      -2.61160000      -0.00310000
C        1.18120000      -3.41730000       0.03870000
N        0.70260000      -4.70520000       0.02420000
C       -0.66580000      -4.64290000      -0.02510000
C       -1.53610000      -5.85460000      -0.05340000
N       -1.07910000      -3.39780000      -0.04260000
H        0.96040000       1.89130000      -0.05890000
H       -0.60380000       1.84240000      -0.88160000
H       -0.53410000       1.85230000       0.88520000
H        2.23300000      -3.19010000       0.07590000
H        1.26130000      -5.54180000       0.04610000
H       -1.40190000      -6.47500000       0.84030000
H       -2.57690000      -5.53230000      -0.09610000
H       -1.33210000      -6.48390000      -0.92750000
