18
Properties=species:S:1:pos:R:3 gdb_39984=T pbc="F F F"
C        0.04320000       1.50620000       0.00450000
O        1.20530000       0.66610000      -0.01450000
C       -0.08300000       0.04850000      -0.00890000
C       -0.46110000      -0.81980000       1.19780000
N       -0.62470000      -2.19180000       0.67670000
C       -1.65180000      -2.39530000      -0.35860000
C       -2.01270000      -1.10500000      -1.10710000
C       -0.48210000      -0.78830000      -1.20330000
C       -0.20840000      -2.24590000      -0.71960000
H       -0.11800000       2.05740000       0.93060000
H       -0.13490000       2.07780000      -0.90610000
H        0.34740000      -0.81010000       1.93430000
H       -1.38000000      -0.48550000       1.68930000
H       -2.26660000      -3.28410000      -0.27200000
H       -2.43300000      -1.33190000      -2.08980000
H       -2.65330000      -0.37070000      -0.60640000
H       -0.09540000      -0.44180000      -2.15930000
H        0.54160000      -2.95060000      -1.05590000
