18
Properties=species:S:1:pos:R:3 gdb_54528=T pbc="F F F"
N        0.08000000       1.19820000      -0.38410000
C       -0.01430000      -0.01720000       0.23890000
O        0.90630000      -0.48120000       0.88870000
C       -1.30470000      -0.75060000       0.05040000
C       -1.76180000      -1.64710000       1.18830000
C       -1.27450000      -2.27020000      -0.07810000
C       -2.32770000      -2.59890000      -1.11770000
O       -3.18810000      -1.46070000      -1.16430000
C       -2.40730000      -0.30190000      -0.89940000
H        0.90080000       1.74750000      -0.18460000
H       -0.72370000       1.67300000      -0.75690000
H       -1.09420000      -1.68460000       2.04020000
H       -2.82540000      -1.66970000       1.40340000
H       -0.31840000      -2.77800000      -0.08780000
H       -1.85410000      -2.78210000      -2.09530000
H       -2.95290000      -3.46220000      -0.86810000
H       -3.08610000       0.45110000      -0.48260000
H       -1.96700000       0.09830000      -1.82870000
