20
Properties=species:S:1:pos:R:3 gdb_38862=T pbc="F F F"
C       -0.03310000       1.46150000       0.07870000
C        1.49470000       1.39990000      -0.06350000
O        2.07720000       1.16400000       1.21950000
C        1.79290000      -0.17070000       1.67660000
C        2.69080000      -1.13340000       0.89510000
C        2.23630000      -1.08560000      -0.58650000
C        1.23510000       0.04570000      -0.77440000
N       -0.05840000      -0.04870000       0.03230000
C        0.31510000      -0.52140000       1.38950000
H       -0.42970000       1.90800000       0.99430000
H       -0.54850000       1.87050000      -0.79620000
H        2.06080000       2.20530000      -0.54120000
H        2.02170000      -0.17960000       2.74550000
H        3.72890000      -0.80800000       1.00450000
H        2.61580000      -2.14560000       1.30580000
H        3.08520000      -0.93450000      -1.26070000
H        1.76190000      -2.02530000      -0.89020000
H        0.97080000       0.18420000      -1.82650000
H        0.17580000      -1.60730000       1.45420000
H       -0.36470000      -0.06150000       2.11330000
