19
Properties=species:S:1:pos:R:3 gdb_48630=T pbc="F F F"
O       -0.13530000      -0.01900000       0.08700000
C        0.01520000       1.15010000      -0.15930000
C        1.32270000       1.88970000      -0.02120000
C        1.44800000       2.82620000       1.21670000
C        2.12740000       3.74070000       0.17720000
C        3.60680000       3.40850000      -0.01880000
C        3.82860000       1.88540000       0.16400000
C        2.58590000       1.06120000      -0.25400000
O        1.38260000       3.06330000      -0.88150000
H       -0.82410000       1.80330000      -0.48850000
H        0.47700000       3.21630000       1.52760000
H        2.01050000       2.47190000       2.08140000
H        1.91870000       4.81330000       0.20280000
H        3.88070000       3.73070000      -1.02920000
H        4.23050000       3.97340000       0.68350000
H        4.71150000       1.55430000      -0.38960000
H        4.04490000       1.68550000       1.21870000
H        2.52760000       0.11880000       0.29800000
H        2.61670000       0.81310000      -1.32020000
