13
Properties=species:S:1:pos:R:3 gdb_28742=T pbc="F F F"
N        0.05650000       1.35360000      -0.10060000
C       -0.10150000      -0.01650000       0.00850000
C       -1.17410000      -0.82370000       0.15940000
N       -0.77190000      -2.15690000       0.24660000
C        0.51090000      -2.08100000       0.12900000
O        1.42260000      -3.07120000       0.13910000
C        0.97410000      -4.35780000      -0.10800000
O        1.71810000      -5.27830000      -0.02430000
O        1.02860000      -0.85980000      -0.01520000
H        0.53980000       1.76630000       0.69040000
H        0.52840000       1.63440000      -0.95360000
H       -2.21130000      -0.53740000       0.22020000
H       -0.09060000      -4.37910000      -0.37500000
