19
Properties=species:S:1:pos:R:3 gdb_53617=T pbc="F F F"
C        0.03150000       1.49020000       0.00450000
C        0.03530000       0.03590000      -0.06340000
C        0.03810000      -1.16620000      -0.12730000
C        0.02370000      -2.62210000      -0.18760000
C       -1.35400000      -3.23580000       0.15590000
O       -2.32780000      -2.85080000      -0.81490000
C       -2.91920000      -3.99900000      -1.41540000
C       -2.23800000      -5.17350000      -0.77200000
C       -1.36020000      -4.74180000       0.12510000
H        0.51840000       1.85120000       0.91740000
H        0.56080000       1.93040000      -0.84800000
H       -0.99070000       1.88510000      -0.00320000
H        0.31040000      -2.96980000      -1.18780000
H        0.76430000      -3.03190000       0.51310000
H       -1.65950000      -2.84750000       1.14070000
H       -4.00640000      -3.99770000      -1.23580000
H       -2.77400000      -3.97100000      -2.50670000
H       -2.46390000      -6.20210000      -1.02310000
H       -0.72110000      -5.34530000       0.75740000
