19
Properties=species:S:1:pos:R:3 gdb_77660=T pbc="F F F"
C       -0.07140000       1.56900000       0.05260000
C        0.10030000       0.06360000       0.05670000
C        1.33680000      -0.67560000      -0.25730000
O        1.31010000      -1.61810000      -1.25390000
C        2.60780000      -0.04250000       0.30790000
C        1.98250000      -0.03050000       1.73870000
C        0.71780000      -0.71280000       1.22200000
C        0.04120000      -1.82780000       1.87250000
O        0.34830000      -2.28370000       2.95400000
H        0.81230000       2.09030000       0.42870000
H       -0.26050000       1.92720000      -0.96460000
H       -0.92160000       1.86170000       0.67680000
H       -0.76150000      -0.47340000      -0.33980000
H        2.02470000      -2.24830000      -1.10460000
H        3.45980000      -0.72640000       0.24620000
H        2.90530000       0.91480000      -0.13230000
H        2.51670000      -0.66480000       2.44700000
H        1.84370000       0.95570000       2.18990000
H       -0.79100000      -2.27150000       1.27810000
