20
Properties=species:S:1:pos:R:3 gdb_76380=T pbc="F F F"
C        0.01120000       1.54400000       0.43400000
C        0.08080000       0.03350000       0.34540000
C        1.22620000      -0.70390000      -0.28490000
N        2.43470000       0.09550000      -0.69470000
H        2.67690000       0.75320000       0.05230000
H        3.23660000      -0.52560000      -0.82230000
H        2.29370000       0.62210000      -1.56140000
C        0.98630000      -0.85080000       1.19050000
C        1.94660000      -0.28370000       2.21370000
C        0.36540000      -2.27250000       1.53600000
O        0.54130000      -2.63690000       2.70390000
O       -0.21250000      -2.79550000       0.56130000
H        0.97480000       2.03020000       0.63290000
H       -0.39490000       1.98010000      -0.48640000
H       -0.65040000       1.83960000       1.25390000
H       -0.86400000      -0.44970000       0.11120000
H        1.05890000      -1.56050000      -0.92770000
H        2.04340000       0.81170000       2.21520000
H        1.56980000      -0.60600000       3.18830000
H        2.94920000      -0.72270000       2.12230000
