21
Properties=species:S:1:pos:R:3 gdb_106067=T pbc="F F F"
C       -0.01190000       1.43850000       0.01330000
O        0.01010000       0.02440000      -0.01020000
C        0.63220000      -0.50980000      -1.10620000
C        1.93680000      -0.28690000      -1.82420000
C        2.34710000      -1.74450000      -1.64200000
C        0.83050000      -2.05070000      -1.43710000
C        0.36680000      -3.21090000      -0.59830000
C        0.21750000      -1.76080000      -2.84270000
C        0.56880000      -0.29730000      -2.59560000
H        1.00500000       1.85570000       0.02390000
H       -0.55080000       1.84600000      -0.85380000
H       -0.52990000       1.73340000       0.92800000
H        2.56290000       0.59540000      -1.85840000
H        2.84970000      -2.26250000      -2.46750000
H        2.91470000      -1.88920000      -0.71770000
H        0.81790000      -3.18760000       0.39940000
H       -0.72110000      -3.20380000      -0.47320000
H        0.64350000      -4.16220000      -1.06870000
H        0.66980000      -2.27900000      -3.69680000
H       -0.86540000      -1.91810000      -2.84910000
H        0.26380000       0.57780000      -3.15470000
