14
Properties=species:S:1:pos:R:3 gdb_388=T pbc="F F F"
C        0.10620000       1.36770000       0.21910000
O       -0.08590000      -0.01050000      -0.00960000
C        0.55000000      -0.51440000      -1.16640000
C        2.06530000      -0.67370000      -1.04020000
C       -0.13820000      -1.84340000      -1.46740000
O        0.32770000      -2.70390000      -2.16610000
H        1.15080000       1.61340000       0.45590000
H       -0.20240000       1.96740000      -0.65160000
H       -0.51740000       1.64010000       1.07380000
H        0.32370000       0.14110000      -2.03020000
H        2.43710000      -1.23540000      -1.90040000
H        2.57190000       0.29380000      -1.00690000
H        2.30850000      -1.22990000      -0.13030000
H       -1.13620000      -1.93720000      -0.98630000
