16
Properties=species:S:1:pos:R:3 gdb_49212=T pbc="F F F"
O       -0.17100000      -0.05200000       0.03380000
C       -0.07300000       1.15770000       0.05050000
C        1.18650000       1.88660000      -0.00740000
C        1.17380000       3.23470000       0.02180000
N        2.32870000       3.98370000      -0.03640000
C        3.58430000       3.46650000      -0.36200000
O        4.56390000       4.17440000      -0.35210000
C        3.56340000       2.00630000      -0.78750000
C        2.50620000       1.16140000      -0.05960000
H       -0.97730000       1.80630000       0.11400000
H        0.25080000       3.80070000       0.10190000
H        2.30230000       4.98050000       0.12200000
H        3.35240000       2.01210000      -1.86600000
H        4.57270000       1.61120000      -0.66180000
H        2.84090000       0.94090000       0.96360000
H        2.37590000       0.19320000      -0.54930000
