19
Properties=species:S:1:pos:R:3 gdb_95049=T pbc="F F F"
C        0.12220000       1.57740000      -0.18050000
C        0.16380000       0.06400000      -0.06920000
O        0.97720000      -0.46750000      -1.11430000
C        1.26130000      -1.81560000      -0.76640000
C        1.55090000      -1.79360000       0.73750000
C        2.90390000      -1.13270000       1.14470000
C        2.11380000       0.07240000       1.67310000
O        2.41840000       1.07770000       2.24760000
C        0.76620000      -0.52470000       1.23080000
H        1.12090000       2.00630000      -0.07100000
H       -0.28070000       1.86880000      -1.15420000
H       -0.51830000       1.99830000       0.59990000
H       -0.85820000      -0.34210000      -0.16930000
H        0.39510000      -2.46320000      -0.98090000
H        2.10460000      -2.14970000      -1.37730000
H        1.33320000      -2.73760000       1.23640000
H        3.48310000      -1.65360000       1.91260000
H        3.57040000      -0.88640000       0.31140000
H        0.02630000      -0.62290000       2.02800000
