15
Properties=species:S:1:pos:R:3 gdb_29148=T pbc="F F F"
C        0.08790000       1.44850000      -0.00080000
C        0.04200000      -0.04650000      -0.00740000
N       -0.00280000      -0.68870000      -1.12570000
C       -0.04420000      -2.06400000      -1.09680000
O       -0.08890000      -2.61610000      -2.33780000
C       -0.03940000      -2.75150000       0.05920000
O        0.00750000      -2.10060000       1.26210000
C        0.05040000      -0.72920000       1.30380000
N        0.09470000      -0.08690000       2.40020000
H        0.98470000       1.79780000       0.52090000
H        0.07650000       1.82160000      -1.02500000
H       -0.76190000       1.85130000       0.55970000
H       -0.11660000      -3.57600000      -2.26110000
H       -0.06970000      -3.82660000       0.17370000
H        0.09300000      -0.72560000       3.19650000
