14
Properties=species:S:1:pos:R:3 gdb_129580=T pbc="F F F"
N        0.18890000       1.26910000       0.58170000
C        0.00330000       0.03490000       0.03970000
N        1.14060000      -0.71950000      -0.10170000
N       -1.11640000      -0.50890000      -0.35080000
C       -2.32540000       0.05490000      -0.17760000
N       -3.48280000      -0.48560000      -0.48340000
C       -4.36630000       0.48500000      -0.11950000
N       -3.86130000       1.58040000       0.38250000
O       -2.47780000       1.30820000       0.34840000
H        1.02710000       1.44200000       1.11150000
H       -0.63350000       1.79680000       0.83050000
H        2.00970000      -0.23550000      -0.26440000
H        1.00130000      -1.54970000      -0.65710000
H       -5.43670000       0.37900000      -0.23050000
