21
Properties=species:S:1:pos:R:3 gdb_79701=T pbc="F F F"
C       -0.06670000       1.65950000      -0.01420000
C        0.02580000       0.12590000      -0.02520000
C        0.91340000      -0.72690000      -0.98700000
C        2.37430000      -0.48710000      -0.58520000
C        2.78720000       0.70770000       0.23700000
C        2.23370000      -0.50480000       0.94090000
C        0.72370000      -0.75400000       1.06380000
C        0.60030000      -1.91580000       0.01580000
O       -0.68410000      -2.49210000      -0.02440000
H        0.47840000       2.11740000      -0.84530000
H       -1.11030000       1.97630000      -0.10470000
H        0.31840000       2.09460000       0.91300000
H       -0.98420000      -0.27140000      -0.12210000
H        0.68440000      -0.80060000      -2.05230000
H        3.14080000      -1.06310000      -1.09200000
H        3.86240000       0.82560000       0.33870000
H        2.26200000       1.64820000       0.19800000
H        2.89490000      -1.09380000       1.56660000
H        0.30160000      -0.85670000       2.06410000
H        1.37760000      -2.68890000       0.07580000
H       -0.73070000      -3.06300000      -0.79750000
