16
Properties=species:S:1:pos:R:3 gdb_112070=T pbc="F F F"
O       -0.04120000       1.53930000      -0.01750000
C        0.06640000       0.14610000       0.16280000
C       -1.30700000      -0.50860000      -0.00320000
N       -1.82880000      -0.22730000      -1.35220000
C       -2.32470000      -1.31450000      -1.79120000
N       -2.30360000      -2.41360000      -0.94180000
C       -1.37750000      -2.07470000       0.15040000
C       -0.08680000      -2.76740000      -0.00140000
N        0.90600000      -3.34640000      -0.12640000
H       -0.51100000       1.66350000      -0.85220000
H        0.77340000      -0.30820000      -0.54790000
H        0.45440000      -0.02160000       1.17310000
H       -1.98830000      -0.05760000       0.72830000
H       -2.79820000      -1.41600000      -2.76320000
H       -2.25360000      -3.34050000      -1.34100000
H       -1.79420000      -2.35580000       1.12100000
