21
Properties=species:S:1:pos:R:3 gdb_102090=T pbc="F F F"
C       -0.13620000       1.52510000      -0.06830000
C       -0.12920000      -0.00380000      -0.15280000
C        0.75830000      -0.55530000      -1.28760000
C        2.21330000      -0.19860000      -1.05210000
O        2.90420000       0.44490000      -1.79980000
C        0.62300000      -2.07610000      -1.40980000
O        0.86330000      -2.78510000      -0.21780000
C       -0.47580000      -2.64180000      -2.25970000
C        0.96900000      -2.75830000      -2.70780000
H        0.86590000       1.92770000       0.11450000
H       -0.50160000       1.97310000      -0.99880000
H       -0.78400000       1.86680000       0.74440000
H        0.20350000      -0.43920000       0.79580000
H       -1.14780000      -0.37540000      -0.31280000
H        0.47410000      -0.10200000      -2.24370000
H        2.62990000      -0.59470000      -0.09390000
H        1.81140000      -2.93410000      -0.13920000
H       -0.95350000      -3.54010000      -1.88670000
H       -1.12950000      -1.95760000      -2.78930000
H        1.30780000      -2.15000000      -3.53940000
H        1.42890000      -3.73840000      -2.64270000
