21
Properties=species:S:1:pos:R:3 gdb_91417=T pbc="F F F"
C        0.06490000       1.59530000       0.00860000
C        0.08980000       0.06490000      -0.02480000
C        0.77700000      -0.50740000      -1.27370000
C        2.27590000      -0.81540000      -1.06340000
C        1.69340000      -2.12740000      -0.49380000
C        1.25920000      -1.99400000       0.96740000
C        0.72350000      -0.56420000       1.24820000
O        1.78190000       0.29890000       1.67660000
O        0.49990000      -1.93860000      -1.30690000
H        1.07380000       2.01340000       0.01090000
H       -0.47030000       1.98320000      -0.86460000
H       -0.44310000       1.96230000       0.90570000
H       -0.94290000      -0.30180000      -0.07690000
H        0.45950000      -0.00500000      -2.19250000
H        2.78680000      -0.98490000      -2.01250000
H        2.85720000      -0.17040000      -0.40720000
H        2.19510000      -3.07510000      -0.70870000
H        0.47820000      -2.73960000       1.15370000
H        2.08770000      -2.20910000       1.65460000
H       -0.04020000      -0.60590000       2.03860000
H        2.15860000      -0.07660000       2.47820000
