20
Properties=species:S:1:pos:R:3 gdb_112938=T pbc="F F F"
C       -0.13270000       1.38060000      -0.38440000
C       -0.05150000      -0.12480000      -0.17940000
O        0.97240000      -0.77040000      -0.32750000
N       -1.21830000      -0.71850000       0.18440000
C       -2.54650000      -0.23640000       0.56350000
C       -2.92320000      -1.70400000       0.92490000
C       -4.00260000      -2.32410000       0.06050000
O       -4.06550000      -3.70300000       0.38390000
C       -1.46360000      -2.11020000       0.56050000
H        0.82960000       1.73160000      -0.75600000
H       -0.91930000       1.64620000      -1.09830000
H       -0.35990000       1.89030000       0.55850000
H       -2.55060000       0.46580000       1.40590000
H       -3.12250000       0.20590000      -0.26020000
H       -3.16890000      -1.85240000       1.97780000
H       -4.96500000      -1.82000000       0.24880000
H       -3.75330000      -2.17050000      -1.00270000
H       -4.69680000      -4.12640000      -0.20510000
H       -1.36750000      -2.82320000      -0.26440000
H       -0.84200000      -2.45350000       1.39330000
