16
Properties=species:S:1:pos:R:3 gdb_36996=T pbc="F F F"
C        0.39030000       1.47310000       0.23780000
C        1.68810000       1.78420000      -0.38250000
C        1.15010000       1.04350000       1.57360000
C        0.41020000      -0.34250000       1.54570000
C       -0.01100000      -0.02780000       0.08180000
N        1.23460000      -0.70490000      -0.45700000
C        1.68450000      -1.00460000       0.96280000
C        2.47700000       0.33330000       1.01700000
C        2.25460000       0.44020000      -0.53630000
H       -0.37330000       2.23830000       0.34670000
H        1.21520000       1.72420000       2.41550000
H       -0.23650000      -0.70800000       2.34130000
H       -0.94930000      -0.31920000      -0.38930000
H        2.09370000      -1.99130000       1.18320000
H        3.43520000       0.52390000       1.49240000
H        3.09340000       0.25570000      -1.20070000
