19
Properties=species:S:1:pos:R:3 gdb_16185=T pbc="F F F"
O        0.09960000       1.27620000      -0.49490000
C        0.03460000       0.04720000       0.21340000
C       -1.37180000      -0.49640000       0.23640000
C       -2.43210000       0.16890000       1.10580000
C       -3.62430000      -0.81710000       1.10840000
C       -2.99630000      -2.21370000       0.87420000
C       -1.72460000      -1.93530000       0.08750000
N       -1.81590000      -1.02820000      -1.07100000
H       -0.24060000       1.08570000      -1.37730000
H        0.70890000      -0.70210000      -0.22710000
H        0.38340000       0.26100000       1.22970000
H       -2.02670000       0.29100000       2.11790000
H       -2.70370000       1.16770000       0.74990000
H       -4.20060000      -0.77150000       2.03540000
H       -4.32510000      -0.57380000       0.30300000
H       -2.72510000      -2.68520000       1.82670000
H       -3.67720000      -2.90080000       0.35990000
H       -0.97460000      -2.71630000      -0.00220000
H       -2.78390000      -0.78200000      -1.26340000
