18
Properties=species:S:1:pos:R:3 gdb_47365=T pbc="F F F"
O       -0.04560000      -0.08120000       0.16040000
C       -0.05380000       1.12020000       0.04810000
C       -1.33400000       1.94400000       0.05820000
C       -1.35690000       3.01470000      -1.04970000
C       -0.09030000       3.87660000      -1.02720000
C        1.18630000       3.01350000      -1.16940000
C        1.24190000       1.92430000      -0.06660000
C        1.25530000       2.41030000      -2.50620000
N        1.29780000       1.94400000      -3.56300000
H       -2.18350000       1.26110000      -0.01000000
H       -1.38750000       2.44150000       1.03820000
H       -1.44580000       2.52650000      -2.02730000
H       -2.24200000       3.64750000      -0.93360000
H       -0.11920000       4.62490000      -1.82430000
H       -0.02020000       4.41950000      -0.07650000
H        2.06850000       3.65590000      -1.06870000
H        1.39750000       2.43720000       0.89200000
H        2.07260000       1.23300000      -0.21830000
