19
Properties=species:S:1:pos:R:3 gdb_47946=T pbc="F F F"
O        0.24390000       0.00950000       0.28570000
C        0.01530000       1.16130000       0.05570000
O       -1.22990000       1.65660000      -0.01020000
C       -1.41640000       2.89540000      -0.72780000
C       -1.33790000       2.70800000      -2.24860000
C       -0.12350000       1.95510000      -2.83810000
C        1.28550000       2.49050000      -2.49880000
C        1.87150000       1.89860000      -1.21610000
O        0.96160000       2.12340000      -0.12770000
H       -2.42030000       3.22220000      -0.44750000
H       -0.69730000       3.63400000      -0.37340000
H       -2.23940000       2.17960000      -2.57950000
H       -1.39060000       3.71290000      -2.68860000
H       -0.18250000       0.89480000      -2.56240000
H       -0.25140000       1.97550000      -3.92560000
H        1.97610000       2.25170000      -3.31670000
H        1.26540000       3.58450000      -2.41950000
H        2.05170000       0.82210000      -1.30960000
H        2.80880000       2.38680000      -0.93920000
