14
Properties=species:S:1:pos:R:3 gdb_25208=T pbc="F F F"
N        0.04790000       1.01650000      -0.89690000
C        0.00530000       0.01880000      -0.12510000
O        1.18940000      -0.40410000       0.44890000
C        1.47330000      -1.42520000       1.30610000
N        0.76830000      -2.31550000       1.85750000
C       -0.59690000      -2.49380000       1.71600000
C       -1.49890000      -1.80540000       0.99220000
C       -1.33040000      -0.65100000       0.12440000
N       -2.37200000      -0.18370000      -0.45470000
H        0.99700000       1.37890000      -0.98550000
H        2.54280000      -1.38840000       1.49740000
H       -0.96320000      -3.33480000       2.29810000
H       -2.53180000      -2.13470000       1.03730000
H       -2.10330000       0.62140000      -1.02880000
