17
Properties=species:S:1:pos:R:3 gdb_90015=T pbc="F F F"
C        0.62300000       1.46410000       0.11910000
C       -0.10090000       0.15140000      -0.09570000
C        0.35260000      -0.71480000      -1.29470000
C        0.91300000      -1.65460000      -0.21400000
C        0.76860000      -3.18600000      -0.19220000
O        2.22650000      -3.33070000      -0.23150000
C        2.42450000      -1.97240000      -0.17190000
O        3.45120000      -1.37680000      -0.12630000
O        0.35360000      -0.88000000       0.83520000
H        1.70490000       1.32280000       0.03520000
H        0.30260000       2.20130000      -0.62520000
H        0.40170000       1.86240000       1.11380000
H       -1.18560000       0.27980000      -0.00720000
H       -0.45640000      -1.14690000      -1.88570000
H        1.09410000      -0.26300000      -1.95530000
H        0.35860000      -3.58320000       0.73850000
H        0.30620000      -3.65520000      -1.06330000
