18
Properties=species:S:1:pos:R:3 gdb_91488=T pbc="F F F"
O       -0.10140000       1.39210000      -0.03590000
C       -0.01690000      -0.02190000       0.01550000
C        0.41890000      -0.60400000       1.41160000
N       -0.80430000      -1.31410000       1.87470000
C       -1.17530000      -2.02860000       0.58380000
C       -1.43640000      -0.62150000       0.00450000
C       -1.85970000      -0.30580000       1.48120000
C       -2.31210000      -0.34380000      -1.17050000
O       -2.86700000      -1.20260000      -1.81490000
H        0.78910000       1.75030000      -0.09720000
H        0.59110000      -0.40460000      -0.81510000
H        1.25360000      -1.30660000       1.34540000
H        0.67950000       0.20250000       2.10220000
H       -0.38140000      -2.64360000       0.15100000
H       -2.08430000      -2.61750000       0.71210000
H       -2.85370000      -0.68080000       1.73110000
H       -1.71110000       0.70760000       1.85650000
H       -2.44070000       0.73370000      -1.41170000
