19
Properties=species:S:1:pos:R:3 gdb_61056=T pbc="F F F"
C       -0.31120000       1.50920000      -0.15660000
C        0.03380000       0.02730000      -0.12340000
C        1.40540000      -0.41300000      -0.68800000
O        1.78440000      -1.01890000       0.56940000
C        0.54720000      -0.61860000       1.19360000
C        0.79970000       0.29150000       2.40680000
O       -0.41610000       0.71680000       2.95630000
C        1.62090000      -0.45150000       3.44150000
O        1.21500000      -0.59620000       4.57130000
H        0.52280000       2.13060000       0.18550000
H       -0.55350000       1.81980000      -1.17840000
H       -1.17190000       1.72500000       0.48190000
H       -0.79150000      -0.55230000      -0.54390000
H        1.38470000      -1.14670000      -1.50180000
H        2.08240000       0.40610000      -0.96340000
H       -0.03980000      -1.48360000       1.52900000
H        1.41080000       1.14890000       2.07580000
H       -0.39530000       0.42600000       3.88330000
H        2.59420000      -0.85150000       3.10480000
