15
Properties=species:S:1:pos:R:3 gdb_97193=T pbc="F F F"
C        0.01970000       1.45000000      -0.21990000
N       -0.02590000       0.00280000      -0.11640000
C       -1.10960000      -0.57660000       0.14210000
N       -1.16150000      -1.96660000       0.29610000
C       -2.30550000      -2.74240000       0.21170000
O       -2.31260000      -3.92290000       0.01580000
O       -3.45240000      -2.02450000       0.37880000
C       -3.27900000      -0.75500000       0.97410000
O       -2.32890000       0.02250000       0.27580000
H        0.90670000       1.81380000       0.30810000
H        0.13200000       1.73960000      -1.27140000
H       -0.86600000       1.95510000       0.18200000
H       -0.28880000      -2.44990000       0.14110000
H       -4.23250000      -0.23500000       0.90040000
H       -2.97130000      -0.87400000       2.02110000
