17
Properties=species:S:1:pos:R:3 gdb_81917=T pbc="F F F"
C       -0.48570000       1.36600000       0.03260000
C       -0.05010000      -0.10750000      -0.01870000
C        0.82170000      -0.49320000      -1.26200000
O        0.75160000       0.39590000      -2.35700000
C        2.23840000      -0.62960000      -0.72080000
O        2.63750000       0.55640000      -0.02750000
C        2.24110000      -0.59360000       0.75090000
C        0.80590000      -0.47740000       1.20330000
O        0.40540000      -0.69600000       2.31740000
H        0.37770000       2.03480000       0.08590000
H       -1.06950000       1.61840000      -0.85570000
H       -1.10150000       1.53810000       0.91900000
H       -0.94740000      -0.73220000       0.01700000
H        0.49170000      -1.46100000      -1.65380000
H        1.17480000       1.21890000      -2.08580000
H        3.01700000      -1.12400000      -1.29540000
H        3.00310000      -1.03850000       1.38250000
