14
Properties=species:S:1:pos:R:3 gdb_79497=T pbc="F F F"
O       -0.04420000       1.46570000      -0.08690000
C        0.04830000       0.06770000      -0.04820000
C        0.05600000      -0.61500000       1.33690000
C       -1.47470000      -0.36600000       1.53730000
O       -1.77850000      -1.75000000       1.85090000
C       -0.76630000      -1.83150000       0.81270000
C       -1.32890000      -0.61700000      -0.01480000
C       -2.36230000      -0.63180000      -1.00940000
N       -3.18890000      -0.64620000      -1.81810000
H        0.84300000       1.83660000      -0.11550000
H        0.75320000      -0.32820000      -0.78940000
H        0.81610000      -0.63470000       2.11470000
H       -2.00810000       0.42950000       2.05060000
H       -0.44750000      -2.80750000       0.45290000
