15
Properties=species:S:1:pos:R:3 gdb_128395=T pbc="F F F"
C        0.07290000       1.42480000       0.25560000
N       -0.05880000       0.06230000      -0.23070000
C       -1.22950000      -0.59420000      -0.25180000
N       -2.31930000      -0.03780000       0.16760000
C       -3.47960000      -0.75050000       0.12330000
C       -4.74550000      -0.38400000       0.50620000
N       -5.56790000      -1.44690000       0.26460000
N       -4.93680000      -2.41730000      -0.22330000
O       -3.54320000      -2.00820000      -0.33850000
H        1.11650000       1.73000000       0.16850000
H       -0.55450000       2.10600000      -0.32720000
H       -0.23960000       1.49410000       1.30190000
H        0.75710000      -0.41650000      -0.56880000
H       -1.17650000      -1.61230000      -0.64480000
H       -5.09580000       0.54310000       0.92350000
