20
Properties=species:S:1:pos:R:3 gdb_62812=T pbc="F F F"
C       -0.07790000       1.51300000      -0.00520000
C        0.02340000      -0.01560000       0.02470000
C       -1.35190000      -0.56320000      -0.35750000
N        1.23720000      -0.62630000      -0.75430000
C        2.10070000      -0.12490000       0.41460000
C        0.86960000      -0.71240000       1.15960000
C        1.05580000      -1.86620000       0.13990000
C        0.59660000      -0.77430000       2.57170000
C        0.35310000      -0.81640000       3.74960000
H       -0.05080000       1.85700000      -1.04490000
H       -1.03540000       1.82550000       0.42110000
H        0.70320000       2.03670000       0.54520000
H       -1.68120000      -0.09360000      -1.29030000
H       -1.40150000      -1.64140000      -0.49950000
H       -2.07620000      -0.29640000       0.41920000
H        3.03940000      -0.67360000       0.51740000
H        2.27990000       0.94700000       0.43110000
H        0.21200000      -2.50570000      -0.10580000
H        1.96940000      -2.45720000       0.23270000
H        0.14090000      -0.85520000       4.78940000
