21
Properties=species:S:1:pos:R:3 gdb_72154=T pbc="F F F"
C       -0.01750000       1.49490000       0.00790000
C       -0.02510000      -0.01840000      -0.04530000
C        0.59430000      -0.73080000      -1.27910000
C        0.63610000      -2.11800000      -0.59660000
C        1.67910000      -1.77680000       0.49350000
C        0.70510000      -0.80090000       1.17740000
O       -0.27070000      -1.76660000       1.60410000
C       -0.72180000      -2.10690000       0.28070000
C       -1.38510000      -0.76420000      -0.06340000
H        1.00460000       1.89070000       0.00710000
H       -0.53640000       1.92450000      -0.85650000
H       -0.51690000       1.86380000       0.91060000
H       -0.05140000      -0.65870000      -2.15800000
H        1.59100000      -0.37980000      -1.55960000
H        0.80400000      -2.99800000      -1.21570000
H        1.93660000      -2.58650000       1.17780000
H        2.59040000      -1.34580000       0.07240000
H        1.04150000      -0.19610000       2.01880000
H       -1.31670000      -3.01850000       0.30060000
H       -2.08610000      -0.48170000       0.72420000
H       -1.87730000      -0.69550000      -1.03670000
