14
Properties=species:S:1:pos:R:3 gdb_49852=T pbc="F F F"
N       -0.36870000       1.22930000       0.42320000
C       -0.15130000       0.04630000       0.05270000
O        1.08790000      -0.50300000      -0.18660000
C        0.98680000      -1.76970000      -0.85520000
C        1.87760000      -2.78650000      -0.14590000
O        2.32990000      -3.74920000      -0.70310000
C       -0.48710000      -2.14730000      -0.78330000
O       -0.95640000      -2.18390000       0.56180000
C       -1.18790000      -0.99190000      -0.21450000
H        0.50320000       1.75530000       0.50560000
H        1.31180000      -1.67050000      -1.89690000
H        2.05000000      -2.56640000       0.92730000
H       -0.91590000      -2.85620000      -1.48320000
H       -2.21810000      -0.71750000      -0.40320000
