17
Properties=species:S:1:pos:R:3 gdb_55308=T pbc="F F F"
N        0.78610000       0.02630000      -0.42170000
C       -0.37990000       0.60990000      -0.06360000
O       -0.53260000       1.79120000       0.19490000
C       -1.55650000      -0.35130000       0.03040000
O       -1.23720000      -1.74080000      -0.21090000
C       -1.74070000      -2.14720000       1.09250000
C       -2.02540000      -0.69300000       1.44930000
C       -1.83720000       0.07830000       2.69190000
N       -3.18940000      -0.20330000       2.15610000
H        1.61950000       0.58390000      -0.50280000
H        0.80390000      -0.96420000      -0.60230000
H       -2.35170000       0.00940000      -0.63510000
H       -2.63150000      -2.77880000       1.00450000
H       -0.97460000      -2.66250000       1.68240000
H       -1.60140000      -0.43540000       3.62000000
H       -1.43600000       1.08250000       2.59320000
H       -3.56060000       0.62450000       1.69440000
