23
Properties=species:S:1:pos:R:3 gdb_109865=T pbc="F F F"
C        0.17440000       0.92460000       1.66780000
C       -0.23350000       0.74870000       0.20040000
C       -1.48100000      -0.11570000       0.03610000
C       -2.02360000      -0.49420000      -1.40280000
C       -1.28070000      -0.02120000      -2.64800000
C       -1.94470000      -1.97940000      -1.01600000
C       -0.53590000      -2.36310000      -0.61150000
C       -1.40820000      -1.61770000       0.35840000
O       -1.79930000      -2.16420000       1.57220000
H        1.06130000       1.55860000       1.76360000
H       -0.63130000       1.38380000       2.25110000
H        0.40770000      -0.03910000       2.13440000
H       -0.41670000       1.73440000      -0.24690000
H        0.60470000       0.31550000      -0.35840000
H       -2.29880000       0.32310000       0.61860000
H       -3.07040000      -0.18410000      -1.47960000
H       -0.23300000      -0.33670000      -2.65380000
H       -1.74980000      -0.42760000      -3.55080000
H       -1.29850000       1.07120000      -2.72940000
H       -2.67220000      -2.73700000      -1.28190000
H       -0.42130000      -3.41580000      -0.37200000
H        0.33730000      -1.91410000      -1.07810000
H       -1.01790000      -2.26110000       2.12660000
