21
Properties=species:S:1:pos:R:3 gdb_58424=T pbc="F F F"
C       -0.20320000       1.52720000      -0.02210000
C        0.02300000       0.02010000      -0.01680000
O        0.77870000      -0.29830000      -1.18520000
C        0.74150000      -0.48430000       1.23610000
C        1.98160000       0.27880000       1.66080000
C       -0.07580000      -1.16910000       2.32710000
O       -1.45690000      -1.32930000       2.20770000
C        0.80770000      -1.98650000       1.41330000
O        0.13280000      -2.75150000       0.43400000
H        0.74600000       2.06930000      -0.04000000
H       -0.76760000       1.80890000      -0.91480000
H       -0.76990000       1.83260000       0.86220000
H       -0.95920000      -0.46380000      -0.06750000
H        0.80180000      -1.26060000      -1.23680000
H        1.73440000       1.28740000       2.00660000
H        2.50000000      -0.22950000       2.48050000
H        2.67960000       0.36410000       0.82130000
H        0.22270000      -1.01330000       3.36070000
H       -1.59620000      -1.97390000       1.50070000
H        1.73170000      -2.43260000       1.77540000
H        0.06960000      -3.65900000       0.75040000
