21
Properties=species:S:1:pos:R:3 gdb_37454=T pbc="F F F"
C        0.03020000       1.51480000       0.11420000
C        1.31930000       0.72960000       0.09330000
C       -0.00160000       0.00310000       0.02980000
C       -0.07840000      -0.70090000      -1.34630000
C       -0.83780000       0.12170000      -2.42030000
C        0.20360000       1.11100000      -3.01750000
C        1.56460000       0.54510000      -2.61630000
C        2.07220000       0.39260000      -1.17960000
C        1.38170000      -0.75580000      -1.87860000
H       -0.25270000       1.94880000       1.06890000
H       -0.25910000       2.12030000      -0.73220000
H        1.91680000       0.72180000       0.99920000
H       -0.38480000      -0.53720000       0.88910000
H       -0.51470000      -1.69510000      -1.22890000
H       -1.18510000      -0.55200000      -3.21080000
H       -1.72090000       0.62090000      -2.01120000
H        0.13620000       1.12670000      -4.11050000
H        0.05110000       2.14450000      -2.69400000
H        2.36210000       0.63490000      -3.34820000
H        3.15460000       0.40090000      -1.09960000
H        1.85650000      -1.69040000      -2.15520000
