19
Properties=species:S:1:pos:R:3 gdb_46300=T pbc="F F F"
O        0.10010000       0.02710000       0.04570000
C       -0.03130000       1.21650000       0.06280000
C       -1.22390000       2.16100000       0.26380000
C       -0.19500000       3.29000000       0.57110000
C        0.98790000       2.38410000       0.06040000
C        2.27630000       2.18330000       0.89620000
C        3.44490000       2.77250000       0.06260000
C        2.83430000       2.96080000      -1.30200000
C        1.51890000       2.75400000      -1.30430000
H       -1.77800000       2.31840000      -0.66760000
H       -1.93440000       1.87530000       1.04330000
H       -0.33540000       4.22760000       0.03100000
H       -0.11450000       3.50370000       1.63960000
H        2.19260000       2.63580000       1.88760000
H        2.42260000       1.10790000       1.03880000
H        3.80240000       3.73050000       0.46420000
H        4.31550000       2.10700000       0.04510000
H        3.41420000       3.26210000      -2.16780000
H        0.86710000       2.85910000      -2.16530000
