21
Properties=species:S:1:pos:R:3 gdb_103669=T pbc="F F F"
C       -0.01460000       1.64700000       0.06880000
C       -0.27550000       0.14210000       0.18710000
C        0.69500000      -0.58800000       1.11900000
C        0.62190000      -0.12480000       2.56770000
C        0.73820000      -2.12530000       0.92420000
C        2.17320000      -1.89040000       0.38580000
O        2.06710000      -0.46590000       0.61760000
C        3.26590000      -2.51610000       1.11460000
C        4.16230000      -3.04390000       1.71750000
H        1.02820000       1.82900000      -0.20630000
H       -0.65290000       2.09000000      -0.70150000
H       -0.21650000       2.17430000       1.00590000
H       -1.30030000      -0.04480000       0.53480000
H       -0.19600000      -0.31430000      -0.80690000
H       -0.38570000      -0.27470000       2.97160000
H        1.33080000      -0.68730000       3.18090000
H        0.87260000       0.93610000       2.65200000
H        0.69030000      -2.71170000       1.84190000
H        0.03480000      -2.52600000       0.19270000
H        2.28330000      -2.10020000      -0.68610000
H        4.95890000      -3.50490000       2.24740000
