13
Properties=species:S:1:pos:R:3 gdb_127814=T pbc="F F F"
C       -0.02110000       1.41450000      -0.04110000
N       -0.00940000      -0.04690000      -0.00620000
N       -0.09540000      -0.65320000      -1.23130000
N       -0.09340000      -1.90320000      -1.31030000
N       -0.00480000      -2.63250000      -0.16300000
C        0.08860000      -2.18450000       1.14660000
O        0.16270000      -2.93000000       2.08930000
C        0.08550000      -0.67470000       1.23310000
O        0.15720000      -0.05320000       2.26480000
H        0.89690000       1.80460000       0.40400000
H       -0.09910000       1.71460000      -1.08420000
H       -0.86980000       1.79350000       0.53270000
H       -0.00980000      -3.63300000      -0.31700000
