18
Properties=species:S:1:pos:R:3 gdb_122776=T pbc="F F F"
N       -0.76270000       0.22210000       1.99390000
H       -1.34410000       0.34000000       3.57840000
H       -0.00030000      -0.44420000       2.09460000
H       -1.43950000      -0.20970000       1.37150000
C       -0.25820000       1.48470000       1.41660000
C        0.57740000       2.27790000       2.42360000
C       -0.19430000       2.68550000       3.70730000
N        0.18110000       1.92180000       4.88960000
C       -0.47690000       0.88180000       5.20920000
O       -1.47830000       0.26100000       4.57660000
C       -0.12830000       0.22960000       6.46370000
N        0.13960000      -0.29510000       7.45800000
H        0.33120000       1.30910000       0.50580000
H       -1.13240000       2.07650000       1.12370000
H        1.47110000       1.71130000       2.70970000
H        0.93610000       3.17710000       1.91180000
H        0.04050000       3.72880000       3.93660000
H       -1.27630000       2.63260000       3.51310000
