18
Properties=species:S:1:pos:R:3 gdb_51760=T pbc="F F F"
O        0.10990000      -0.44150000      -0.10100000
C       -0.01560000       0.74030000       0.13980000
N        0.97600000       1.67090000       0.05910000
C        2.34110000       1.34580000      -0.23930000
C        3.04820000       1.99890000      -1.45590000
C        4.33880000       2.09880000      -0.60270000
C        3.47120000       1.93180000       0.69150000
C        3.10050000       3.18730000       1.31620000
C        2.75240000       4.22980000       1.80760000
H       -0.97770000       1.19500000       0.44820000
H        0.77650000       2.61570000       0.35480000
H        2.40820000       0.25790000      -0.27480000
H        3.08170000       1.42230000      -2.38210000
H        2.63160000       2.98770000      -1.66680000
H        4.99670000       1.23760000      -0.74000000
H        4.92520000       3.01440000      -0.67660000
H        3.85640000       1.23770000       1.44360000
H        2.48080000       5.15030000       2.26260000
