10
Properties=species:S:1:pos:R:3 gdb_958=T pbc="F F F"
O        0.10650000       1.30090000       0.12110000
C        0.07020000      -0.02730000       0.06070000
N        0.09080000      -0.59320000      -1.15180000
C        0.05180000      -1.92260000      -1.12830000
N       -0.00330000      -2.68740000      -0.03780000
C       -0.01810000      -1.99230000       1.10310000
N        0.01620000      -0.66920000       1.22710000
H        0.14350000       1.61890000      -0.79240000
H        0.06660000      -2.42890000      -2.09110000
H       -0.06270000      -2.56440000       2.02730000
