19
Properties=species:S:1:pos:R:3 gdb_73501=T pbc="F F F"
C        0.03830000       1.46210000       0.01990000
C        0.00020000      -0.03990000       0.00060000
O        0.98310000      -0.61860000      -0.83960000
C        0.36170000      -1.66220000      -1.59660000
C       -0.78420000      -2.16830000      -0.71140000
O       -0.29410000      -3.03130000       0.30980000
C        0.22950000      -2.23440000       1.37630000
C       -0.38250000      -0.84890000       1.22770000
C       -1.24510000      -0.87660000      -0.01800000
H        1.01510000       1.81730000       0.36380000
H       -0.13540000       1.86760000      -0.98200000
H       -0.72600000       1.86110000       0.69310000
H       -0.02520000      -1.26730000      -2.54910000
H        1.10630000      -2.43570000      -1.79960000
H       -1.55890000      -2.70270000      -1.26540000
H       -0.05880000      -2.70200000       2.32390000
H        1.32550000      -2.20020000       1.32050000
H       -0.70770000      -0.31920000       2.11630000
H       -2.25820000      -0.50130000      -0.08260000
