15
Properties=species:S:1:pos:R:3 gdb_52004=T pbc="F F F"
O        0.10850000      -0.03780000      -0.07800000
C        0.65320000       0.88790000      -0.61400000
C        0.93560000       2.20480000       0.09020000
O        1.15920000       3.23600000      -0.87900000
C        2.40830000       3.75090000      -0.95550000
O        3.33640000       3.39920000      -0.27390000
C        2.48760000       4.82640000      -2.01520000
C        3.75970000       4.70270000      -2.84860000
O        3.80280000       4.95290000      -4.02210000
H        1.00710000       0.84950000      -1.66850000
H        0.07890000       2.49170000       0.70440000
H        1.82160000       2.09340000       0.72420000
H        1.60790000       4.84740000      -2.65830000
H        2.55130000       5.78810000      -1.48610000
H        4.65000000       4.37430000      -2.27490000
