14
Properties=species:S:1:pos:R:3 gdb_78128=T pbc="F F F"
O       -0.26280000       1.40670000       0.08380000
C       -0.08800000       0.03050000      -0.02260000
C       -1.27210000      -0.84660000      -0.00160000
C       -0.39290000      -0.75160000      -1.29860000
C       -1.55900000      -0.14390000      -2.00550000
O       -1.81200000       0.08590000      -3.14700000
C       -2.45150000      -0.12980000      -0.69980000
C       -3.66180000      -0.91710000      -0.83140000
N       -4.61950000      -1.55600000      -0.93600000
H        0.43180000       1.84700000      -0.41770000
H        0.78270000      -0.36520000       0.50080000
H       -1.38800000      -1.69900000       0.65310000
H        0.32500000      -1.43730000      -1.73100000
H       -2.67450000       0.86540000      -0.30980000
