18
Properties=species:S:1:pos:R:3 gdb_86072=T pbc="F F F"
N        0.06380000       1.34870000       0.37120000
C       -0.04300000       0.04970000      -0.02620000
C       -1.14370000      -0.75930000      -0.06120000
C       -0.77440000      -2.14530000      -0.54350000
C        0.75590000      -2.18020000      -0.38380000
O        1.33200000      -3.01960000      -1.36640000
C        1.18790000      -0.69390000      -0.48250000
C       -2.49120000      -0.37670000       0.27370000
O       -3.46280000      -1.10970000       0.21520000
H        0.88490000       1.86340000       0.10110000
H       -0.76990000       1.90150000       0.48630000
H       -1.27680000      -2.93700000       0.01790000
H       -1.03020000      -2.29460000      -1.60080000
H        0.99910000      -2.54470000       0.62530000
H        2.25810000      -3.15640000      -1.14490000
H        1.41220000      -0.45160000      -1.53080000
H        2.07580000      -0.44910000       0.11250000
H       -2.61800000       0.68140000       0.61370000
