23
Properties=species:S:1:pos:R:3 gdb_70876=T pbc="F F F"
C       -0.12610000       1.44960000       0.00530000
C        0.01160000      -0.04390000      -0.01970000
C        0.94940000      -0.87370000      -0.89390000
C        0.10440000      -2.11060000      -0.47390000
C       -0.00270000      -3.32310000      -1.36090000
C        0.41220000      -2.24500000       1.04610000
C       -0.31830000      -0.91770000       1.20950000
C       -1.07340000      -1.09740000      -0.09100000
C       -2.52540000      -1.04690000      -0.43690000
H        0.76730000       1.92650000       0.42650000
H       -0.27380000       1.85550000      -1.00250000
H       -0.98090000       1.76150000       0.61580000
H        0.81400000      -0.63450000      -1.95460000
H        2.02210000      -0.89290000      -0.66000000
H        0.96730000      -3.82840000      -1.44710000
H       -0.71930000      -4.05050000      -0.96300000
H       -0.32520000      -3.05480000      -2.37340000
H       -0.14800000      -3.06990000       1.49860000
H        1.46670000      -2.31590000       1.34110000
H       -0.68410000      -0.46090000       2.12190000
H       -3.00160000      -0.16800000       0.01250000
H       -2.68500000      -0.98710000      -1.52050000
H       -3.06300000      -1.93100000      -0.07340000
