18
Properties=species:S:1:pos:R:3 gdb_43920=T pbc="F F F"
O        0.43170000      -0.04500000      -0.00420000
C        0.24420000       1.15290000       0.00570000
N       -0.97880000       1.79500000       0.02790000
C       -0.88760000       3.22810000       0.03470000
C       -1.67060000       4.06620000      -1.03400000
C       -1.96980000       5.12200000       0.06160000
C       -1.63840000       4.05380000       1.13570000
C        0.60510000       3.43290000       0.01380000
C        1.24580000       2.26390000      -0.00250000
H       -1.84470000       1.28290000       0.03710000
H       -1.12410000       4.37390000      -1.92800000
H       -2.57540000       3.53360000      -1.34030000
H       -1.24350000       5.93890000       0.05550000
H       -2.97180000       5.55360000       0.07890000
H       -2.53380000       3.51760000       1.46270000
H       -1.06550000       4.35140000       2.01650000
H        1.04190000       4.42390000       0.01310000
H        2.31030000       2.07910000      -0.01940000
