18
Properties=species:S:1:pos:R:3 gdb_97285=T pbc="F F F"
C       -0.48400000       1.24160000       0.47640000
N       -0.11390000      -0.11330000       0.12230000
C       -1.01900000      -0.99220000       0.16010000
N       -0.76490000      -2.33990000      -0.16550000
C        0.51500000      -2.76290000      -0.54760000
O        0.78220000      -3.90390000      -0.83540000
C       -1.80200000      -3.28750000      -0.11070000
N       -2.97840000      -2.97540000       0.22530000
C       -3.97000000      -4.03160000       0.24800000
H       -0.26330000       1.90990000      -0.36340000
H       -1.54520000       1.35450000       0.74650000
H        0.12970000       1.57730000       1.31980000
H       -2.06420000      -0.83110000       0.43590000
H        1.22780000      -1.92840000      -0.54910000
H       -1.45330000      -4.28500000      -0.38910000
H       -4.79160000      -3.77360000      -0.42970000
H       -3.57430000      -5.01770000      -0.03920000
H       -4.39880000      -4.10620000       1.25370000
