20
Properties=species:S:1:pos:R:3 gdb_104105=T pbc="F F F"
C       -0.25460000       1.64270000       0.04660000
C        0.06080000       0.14570000       0.01720000
C       -1.23480000      -0.67700000      -0.05740000
O       -1.92110000      -0.32900000      -1.25070000
C        0.98750000      -0.24090000      -1.15530000
O        1.70740000      -1.40930000      -0.72630000
C        1.71060000      -1.49120000       0.63830000
N        2.29440000      -2.39190000       1.30330000
C        0.90370000      -0.34530000       1.20990000
H        0.66350000       2.23780000       0.08380000
H       -0.82480000       1.93580000      -0.83840000
H       -0.85460000       1.89480000       0.92770000
H       -0.99260000      -1.75050000      -0.03900000
H       -1.84700000      -0.45850000       0.83200000
H       -2.69000000      -0.89930000      -1.33720000
H        0.43640000      -0.49180000      -2.06270000
H        1.70500000       0.55860000      -1.37900000
H        2.78220000      -3.03560000       0.67730000
H        1.58740000       0.44090000       1.55040000
H        0.32190000      -0.66820000       2.07570000
