20
Properties=species:S:1:pos:R:3 gdb_99643=T pbc="F F F"
C       -0.55430000       1.29250000       0.01490000
N       -0.00360000      -0.05290000       0.06940000
C        1.39290000      -0.23320000      -0.30710000
C        0.95720000      -0.43510000       1.10300000
C        1.42430000       0.50320000       2.21380000
C        0.42710000       0.50870000       3.40020000
O        0.83790000       1.35580000       4.44840000
C        2.74740000       0.10630000       2.69470000
C        3.80910000      -0.23800000       3.14430000
H        0.16080000       2.09700000       0.24900000
H       -0.92920000       1.46940000      -0.99810000
H       -1.40110000       1.37090000       0.70420000
H        1.61590000      -1.08020000      -0.95050000
H        1.98400000       0.66010000      -0.51130000
H        0.81960000      -1.45820000       1.45140000
H        1.49280000       1.52980000       1.83670000
H       -0.53930000       0.88670000       3.05400000
H        0.27990000      -0.52820000       3.74170000
H        1.71660000       1.06360000       4.72040000
H        4.76090000      -0.53540000       3.51010000
