19
Properties=species:S:1:pos:R:3 gdb_76196=T pbc="F F F"
C       -0.11380000       1.52440000       0.08110000
C        0.01020000       0.01940000       0.04710000
O       -1.13660000      -0.67730000      -0.35200000
C        1.35580000      -0.63730000      -0.30000000
O        2.51710000       0.11980000      -0.49020000
C        0.82040000      -0.69460000       1.09630000
C        1.45780000      -0.14910000       2.36730000
C        0.99640000      -1.49440000       2.97070000
O        0.40960000      -1.90870000       1.71220000
H        0.83080000       1.99100000       0.37090000
H       -0.38560000       1.91080000      -0.91000000
H       -0.89390000       1.83370000       0.78400000
H       -1.27930000      -0.50450000      -1.28980000
H        1.27640000      -1.56570000      -0.86810000
H        2.47960000       0.51950000      -1.36580000
H        2.53600000       0.00330000       2.30720000
H        0.98500000       0.73990000       2.78830000
H        1.79690000      -2.17300000       3.28530000
H        0.24310000      -1.42960000       3.76340000
