20
Properties=species:S:1:pos:R:3 gdb_73099=T pbc="F F F"
C       -0.09380000       1.57120000       0.09500000
C        0.03000000       0.06360000       0.05930000
C       -1.22990000      -0.81320000       0.27530000
C       -0.39850000      -1.75650000       1.19030000
C        0.76540000      -0.71840000       1.19390000
C        2.09320000      -1.14690000       0.58460000
C        1.84190000      -1.05970000      -0.90930000
N        2.56560000      -1.57400000      -1.80710000
O        0.71320000      -0.32560000      -1.15240000
H        0.89390000       2.04310000       0.07480000
H       -0.65980000       1.93160000      -0.77010000
H       -0.61310000       1.89220000       1.00300000
H       -2.01400000      -0.27690000       0.81650000
H       -1.65540000      -1.24160000      -0.63400000
H       -0.83300000      -1.98660000       2.16470000
H       -0.12170000      -2.69740000       0.70730000
H        0.86360000      -0.17210000       2.13280000
H        2.90430000      -0.45890000       0.84870000
H        2.41650000      -2.15210000       0.86220000
H        2.19000000      -1.36040000      -2.73290000
