17
Properties=species:S:1:pos:R:3 gdb_102925=T pbc="F F F"
O        0.13820000       1.33180000       0.13990000
C        0.01450000      -0.05010000      -0.11030000
C       -1.44980000      -0.52380000      -0.01840000
N       -1.92070000      -0.24760000       1.33940000
C       -3.27450000      -0.73470000       1.60700000
C       -3.66520000      -0.44860000       2.98940000
N       -3.95980000      -0.24100000       4.08650000
C       -2.27890000       0.26530000      -1.03110000
O       -2.52970000      -0.13680000      -2.13560000
H       -0.35710000       1.51450000       0.94810000
H        0.39250000      -0.23430000      -1.11980000
H        0.62150000      -0.65280000       0.58820000
H       -1.50210000      -1.58720000      -0.30530000
H       -1.28250000      -0.66590000       2.01040000
H       -3.98040000      -0.22870000       0.93770000
H       -3.39780000      -1.81710000       1.42950000
H       -2.61060000       1.26420000      -0.67440000
