18
Properties=species:S:1:pos:R:3 gdb_125845=T pbc="F F F"
C       -0.37610000       1.68110000      -0.06790000
C        0.07020000       0.23690000       0.04530000
C        0.83420000      -0.46960000      -1.18100000
C        1.08920000       0.33620000      -2.44830000
C        1.97470000      -0.63180000      -0.18030000
N        3.12120000      -1.13490000       0.24300000
C        3.08210000      -0.73890000       1.56090000
N        2.00080000      -0.06160000       1.96660000
N        1.33180000       0.00270000       0.79210000
H        0.43110000       2.32590000      -0.42350000
H       -1.21960000       1.76050000      -0.76090000
H       -0.70460000       2.05200000       0.90740000
H       -0.73760000      -0.39190000       0.43230000
H        0.36130000      -1.42470000      -1.42990000
H        1.58520000       1.28640000      -2.23450000
H        1.73520000      -0.23050000      -3.12510000
H        0.15230000       0.54460000      -2.97460000
H        3.88700000      -0.95430000       2.24850000
