22
Properties=species:S:1:pos:R:3 gdb_36886=T pbc="F F F"
C        0.44320000       1.49310000       0.93040000
C        0.26690000       0.01900000       0.63550000
C       -0.73040000      -0.89260000       1.29460000
C       -2.08620000      -0.20660000       1.51920000
C       -2.17570000       0.08570000      -0.01320000
C       -0.81620000      -0.59750000      -0.21250000
N        1.31980000       2.11050000      -0.06480000
C        0.67280000       2.66150000      -1.25020000
C        1.22560000       3.55900000      -0.19830000
H       -0.52960000       2.00970000       0.99220000
H        0.92670000       1.61250000       1.90850000
H        1.22580000      -0.47120000       0.47900000
H       -0.41250000      -1.80200000       1.79160000
H       -2.85900000      -0.90620000       1.84530000
H       -2.09620000       0.65260000       2.19740000
H       -2.99060000      -0.46820000      -0.48440000
H       -2.25540000       1.13340000      -0.32230000
H       -0.57070000      -1.24630000      -1.04520000
H        1.19980000       2.51800000      -2.18920000
H       -0.41130000       2.59100000      -1.32210000
H        0.50860000       4.08500000       0.43120000
H        2.16410000       4.08410000      -0.35290000
