19
Properties=species:S:1:pos:R:3 gdb_35978=T pbc="F F F"
N        0.49840000      -1.18020000       0.85810000
C        0.26140000      -0.11440000       0.47790000
C       -0.02510000       1.25000000       0.03430000
C       -0.99400000       1.95950000       1.03510000
N       -1.52210000       3.22400000       0.56430000
C       -0.68600000       4.41430000       0.68550000
C        0.82970000       4.21740000       0.47940000
O        1.13670000       3.33870000      -0.59060000
C        1.31140000       1.99760000      -0.20300000
H       -0.54940000       1.18330000      -0.92830000
H       -1.82690000       1.27430000       1.22820000
H       -0.48830000       2.11020000       1.99530000
H       -1.85780000       3.12870000      -0.38530000
H       -1.06190000       5.13990000      -0.04220000
H       -0.82470000       4.86990000       1.67720000
H        1.29140000       5.18470000       0.25000000
H        1.29700000       3.84840000       1.40410000
H        1.92630000       1.93230000       0.70780000
H        1.85870000       1.50430000      -1.01140000
