17
Properties=species:S:1:pos:R:3 gdb_25957=T pbc="F F F"
C        0.57850000       0.17420000      -0.72030000
C       -0.27430000       0.21650000       0.53170000
O       -0.14100000       1.06440000       1.38030000
C       -1.36110000      -0.86780000       0.68150000
C       -0.96330000      -2.24090000       0.26510000
C       -0.43870000      -3.30630000       0.93160000
C       -0.23880000      -4.34050000      -0.04060000
C       -0.65480000      -3.82640000      -1.22550000
O       -1.10000000      -2.55070000      -1.05950000
H        1.25380000      -0.68760000      -0.67250000
H       -0.03890000       0.03660000      -1.61320000
H        1.16520000       1.09020000      -0.79510000
H       -1.67650000      -0.85940000       1.72670000
H       -2.21730000      -0.54270000       0.07520000
H       -0.22280000      -3.35060000       1.98780000
H        0.15530000      -5.33050000       0.12710000
H       -0.70990000      -4.21340000      -2.22940000
