12
Properties=species:S:1:pos:R:3 gdb_5057=T pbc="F F F"
O       -0.12770000       0.43010000      -1.14300000
C       -0.05010000       1.28900000      -0.29760000
C       -1.26900000       1.85410000       0.38070000
N       -1.60140000       3.08880000       0.32130000
C       -0.80420000       4.09160000      -0.16700000
C        0.55680000       4.14720000      -0.13070000
C        1.39810000       3.05410000       0.27440000
N        1.13620000       1.79100000       0.21020000
H       -1.92920000       1.15980000       0.90230000
H       -1.35840000       4.97350000      -0.47770000
H        1.03600000       5.10300000      -0.32130000
H        2.37900000       3.31580000       0.67710000
