12
Properties=species:S:1:pos:R:3 gdb_21371=T pbc="F F F"
N       -0.04970000       1.35510000       0.01050000
C        1.28440000       1.77340000      -0.00060000
N        2.14760000       0.79350000      -0.01450000
C        1.36430000      -0.34910000      -0.01300000
C        0.02030000      -0.01070000       0.00220000
N       -0.70900000      -1.14520000       0.00380000
N        0.12330000      -2.23920000      -0.01060000
C        1.36550000      -1.76650000      -0.02040000
H       -0.86040000       1.94870000       0.02170000
H        1.52410000       2.82690000       0.00270000
H       -1.70160000      -1.29340000       0.01160000
H        2.19260000      -2.46000000      -0.03230000
