16
Properties=species:S:1:pos:R:3 gdb_130118=T pbc="F F F"
N       -0.14560000       1.40460000      -0.00170000
C        0.05550000       0.02450000       0.02390000
N       -0.95660000      -0.80680000       0.25750000
N       -0.37320000      -2.03100000       0.31300000
C        0.95820000      -1.99460000       0.07890000
C        1.28780000      -0.66630000      -0.10870000
C        1.76740000      -3.22730000       0.09270000
C        1.78150000      -4.13930000       1.25300000
O        1.02060000      -4.45180000       0.08470000
H        0.39690000       1.87430000      -0.71390000
H       -1.12740000       1.63180000      -0.09780000
H       -0.93820000      -2.86100000       0.37090000
H        2.26780000      -0.25290000      -0.28410000
H        2.64150000      -3.22180000      -0.55690000
H        2.64890000      -4.77400000       1.42750000
H        1.19940000      -3.87770000       2.13450000
