18
Properties=species:S:1:pos:R:3 gdb_43119=T pbc="F F F"
O        0.00500000       0.02080000      -0.10470000
C       -0.02080000       1.20640000       0.03740000
C       -1.09140000       2.31060000       0.04070000
C       -0.73800000       2.92640000       1.41090000
N        0.74580000       3.16040000       1.23620000
C        0.88760000       4.54100000       0.72160000
C        0.10950000       4.57150000      -0.63100000
C       -0.07060000       3.07180000      -0.90060000
C        0.99790000       2.34430000       0.00890000
H       -2.13330000       2.13040000      -0.21550000
H       -1.25300000       3.86640000       1.62400000
H       -0.92720000       2.23620000       2.23860000
H        0.51530000       5.25220000       1.46360000
H        1.95170000       4.74410000       0.56300000
H       -0.84880000       5.09410000      -0.55360000
H        0.68030000       5.05420000      -1.42900000
H       -0.12570000       2.75800000      -1.94250000
H        2.04820000       2.22590000      -0.24790000
