13
Properties=species:S:1:pos:R:3 gdb_4689=T pbc="F F F"
N        0.12790000       1.37860000       0.14410000
C       -0.01440000      -0.00370000       0.03260000
C       -1.14440000      -0.80680000      -0.00590000
C       -0.70630000      -2.15020000      -0.02390000
C        0.67640000      -2.14610000      -0.00540000
N        1.08090000      -0.81370000       0.03030000
C        1.60580000      -3.20100000      -0.03030000
N        2.38690000      -4.05990000      -0.04760000
H        0.76620000       1.78060000      -0.53300000
H       -0.76270000       1.85370000       0.08750000
H       -2.16410000      -0.45580000      -0.03290000
H       -1.32200000      -3.03450000      -0.06860000
H        2.03150000      -0.50720000       0.15030000
