24
Properties=species:S:1:pos:R:3 gdb_105368=T pbc="F F F"
C       -1.64580000      -0.95080000      -0.59580000
C       -0.26170000      -0.43860000      -0.17990000
C        0.82270000      -0.65040000      -1.22860000
C        0.62710000       0.08130000      -2.54580000
N        0.47050000       1.51980000      -2.34780000
C        1.67940000       2.33170000      -2.40720000
C        0.68300000       2.36590000      -3.51380000
C        2.24090000      -0.83900000      -0.74160000
C        1.47280000      -2.01180000      -1.30250000
H       -2.03750000      -0.39780000      -1.45500000
H       -1.61360000      -2.01230000      -0.86450000
H       -2.36430000      -0.83370000       0.22170000
H       -0.32470000       0.63050000       0.05040000
H        0.04650000      -0.94380000       0.74380000
H        1.47090000      -0.15240000      -3.22150000
H       -0.28280000      -0.27750000      -3.04270000
H        1.74300000       3.14680000      -1.69190000
H        2.62400000       1.82910000      -2.60860000
H        0.96650000       1.88570000      -4.44980000
H        0.00220000       3.20560000      -3.62300000
H        3.05150000      -0.43340000      -1.33790000
H        2.42160000      -0.80860000       0.32780000
H        1.12840000      -2.77490000      -0.61210000
H        1.76600000      -2.39640000      -2.27430000
