19
Properties=species:S:1:pos:R:3 gdb_102877=T pbc="F F F"
C        0.01170000       1.46410000       0.08350000
N        0.09610000       0.01430000       0.09780000
C        0.54200000      -0.58850000      -0.93700000
C        0.97510000       0.07830000      -2.24220000
O        1.50350000      -0.81820000      -3.20540000
N        0.69720000      -1.95120000      -0.93670000
C        0.15780000      -2.73270000       0.16660000
C        0.42190000      -4.15370000      -0.02230000
C        0.62950000      -5.32500000      -0.19060000
H        0.99530000       1.95130000      -0.00810000
H       -0.62040000       1.85580000      -0.72880000
H       -0.42770000       1.80360000       1.02550000
H        0.10040000       0.54690000      -2.70680000
H        1.68030000       0.88900000      -2.01180000
H        2.37020000      -1.10300000      -2.89700000
H        0.72760000      -2.38740000      -1.84570000
H        0.61190000      -2.37340000       1.09700000
H       -0.92260000      -2.55790000       0.28440000
H        0.81160000      -6.36240000      -0.32550000
