18
Properties=species:S:1:pos:R:3 gdb_33222=T pbc="F F F"
O        0.59640000       0.06440000      -1.02060000
C       -0.09690000       0.23480000       0.19900000
C       -1.58750000       0.42530000      -0.01760000
O       -2.06510000      -0.77100000      -0.63130000
C       -3.37270000      -0.76470000      -0.98260000
C       -4.38580000       0.15810000      -0.86530000
C       -5.55040000      -0.45260000      -1.43080000
C       -5.20680000      -1.70530000      -1.86370000
N       -3.86440000      -1.88830000      -1.58480000
H        0.14170000      -0.64140000      -1.49390000
H        0.06140000      -0.61770000       0.87840000
H        0.31410000       1.12790000       0.68060000
H       -2.11080000       0.59520000       0.93360000
H       -1.77380000       1.27850000      -0.68300000
H       -4.31280000       1.14180000      -0.43240000
H       -6.52930000      -0.00490000      -1.50540000
H       -5.78120000      -2.48110000      -2.34160000
H       -3.31960000      -2.71160000      -1.77140000
