17
Properties=species:S:1:pos:R:3 gdb_74574=T pbc="F F F"
C       -0.02790000       1.48990000      -0.02010000
C        0.00340000      -0.00440000      -0.06320000
C        0.17530000      -0.77600000      -1.14250000
C        0.10180000      -2.24490000      -0.82520000
C       -0.20520000      -2.27440000       0.69200000
C       -0.16810000      -0.83220000       1.19740000
O       -1.56810000      -2.74520000       0.40520000
C       -1.32030000      -2.82410000      -0.94580000
O       -2.05100000      -3.21500000      -1.79610000
H        0.73450000       1.88230000       0.66470000
H        0.14150000       1.92630000      -1.00760000
H       -0.99520000       1.85100000       0.35110000
H        0.31130000      -0.41040000      -2.15350000
H        0.89600000      -2.86710000      -1.24190000
H        0.30860000      -3.00650000       1.31490000
H        0.65960000      -0.66970000       1.90030000
H       -1.09170000      -0.59260000       1.73870000
