14
Properties=species:S:1:pos:R:3 gdb_7023=T pbc="F F F"
O       -0.18140000       1.24580000       1.30050000
C        0.04380000       1.32410000       0.12320000
C        1.42910000       1.58670000      -0.45730000
C        1.35740000       2.64360000      -1.56030000
O        0.61250000       2.51360000      -2.49710000
C        2.26730000       3.86160000      -1.35780000
C        2.19360000       4.85900000      -2.40950000
C        2.13640000       5.68520000      -3.27820000
H       -0.74900000       1.21140000      -0.64430000
H        2.12300000       1.83440000       0.34830000
H        1.75600000       0.65420000      -0.93670000
H        2.01140000       4.29740000      -0.38070000
H        3.29500000       3.48930000      -1.23820000
H        2.08110000       6.41360000      -4.04910000
