20
Properties=species:S:1:pos:R:3 gdb_20020=T pbc="F F F"
C        0.37860000       1.53110000       0.11880000
C       -0.33690000       0.20960000      -0.18880000
C        0.27370000      -0.49470000      -1.37650000
O        1.54840000      -1.12610000      -1.18410000
C        0.42490000      -1.95300000      -1.51730000
C       -0.01850000      -2.96390000      -0.51560000
C       -1.06070000      -3.98260000      -0.91810000
C        0.36710000      -4.41160000      -0.71350000
H        1.43470000       1.35170000       0.34110000
H        0.32780000       2.21730000      -0.73370000
H       -0.07190000       2.03330000       0.97990000
H       -0.30230000      -0.44100000       0.68990000
H       -1.39680000       0.39760000      -0.40470000
H        0.21670000       0.08020000      -2.30570000
H        0.45990000      -2.34340000      -2.53880000
H       -0.05020000      -2.61340000       0.50960000
H       -1.80170000      -4.26960000      -0.18080000
H       -1.43970000      -3.94470000      -1.93430000
H        0.95410000      -4.65930000      -1.59180000
H        0.61230000      -4.99700000       0.16530000
