23
Properties=species:S:1:pos:R:3 gdb_57462=T pbc="F F F"
C       -1.49410000      -0.31220000      -0.07990000
C        0.00170000       0.00290000       0.02220000
C        0.20640000       1.51770000       0.17750000
O        0.43640000      -0.66860000       1.21230000
C        0.76020000      -0.53590000      -1.21610000
C        2.29240000      -0.25490000      -1.23340000
C        2.87090000      -1.48100000      -1.89610000
C        1.97600000      -2.46120000      -1.99750000
C        0.63710000      -2.07180000      -1.42340000
H       -1.92880000       0.14900000      -0.97170000
H       -1.66260000      -1.39040000      -0.12840000
H       -2.01690000       0.07170000       0.80060000
H       -0.33510000       1.87970000       1.05620000
H        1.26520000       1.76700000       0.30510000
H       -0.15810000       2.06000000      -0.70120000
H        1.34880000      -0.41260000       1.38310000
H        0.33210000      -0.04080000      -2.09620000
H        2.53930000       0.67530000      -1.75720000
H        2.70930000      -0.14430000      -0.21930000
H        3.90920000      -1.54150000      -2.20370000
H        2.17210000      -3.44770000      -2.40380000
H        0.46560000      -2.57760000      -0.46380000
H       -0.20020000      -2.33930000      -2.07750000
