21
Properties=species:S:1:pos:R:3 gdb_88169=T pbc="F F F"
C       -0.02800000       1.61430000      -0.01830000
C       -0.07500000       0.11300000       0.10750000
O        1.11810000      -0.61130000      -0.22380000
C        0.65740000      -0.64490000       1.13250000
C        1.57010000      -0.04070000       2.20100000
C        1.46770000      -1.05470000       3.35220000
O        1.10430000      -2.28970000       2.74710000
C        0.19670000      -2.00380000       1.68190000
C       -1.25370000      -2.02460000       2.17270000
H        0.90410000       2.01730000       0.38410000
H       -0.10090000       1.90980000      -1.07010000
H       -0.86850000       2.07090000       0.51610000
H       -0.98220000      -0.34290000      -0.29620000
H        2.58650000       0.00690000       1.80120000
H        1.27540000       0.96760000       2.50190000
H        2.41050000      -1.20980000       3.88230000
H        0.71220000      -0.73960000       4.08890000
H        0.34500000      -2.77360000       0.91840000
H       -1.44740000      -1.22150000       2.89130000
H       -1.95190000      -1.90640000       1.33870000
H       -1.46200000      -2.97950000       2.66290000
