13
Properties=species:S:1:pos:R:3 gdb_20488=T pbc="F F F"
C       -0.05650000       1.53460000       0.10130000
O        1.26720000       1.92180000      -0.30130000
C        2.11970000       0.79480000      -0.60910000
C        1.22930000      -0.38060000      -0.37070000
C        0.00000000       0.04750000       0.03100000
N       -0.70350000      -1.08460000       0.21210000
N        0.07340000      -2.17180000      -0.07060000
N        1.25150000      -1.73450000      -0.42560000
H       -0.26150000       1.91780000       1.11120000
H       -0.79430000       1.97780000      -0.58270000
H        2.46650000       0.88020000      -1.64700000
H        2.99900000       0.82030000       0.04740000
H       -1.65500000      -1.23420000       0.50590000
