17
Properties=species:S:1:pos:R:3 gdb_66691=T pbc="F F F"
O       -0.09210000       1.29390000       0.15330000
C        0.04430000      -0.06950000       0.05910000
C       -0.61650000      -1.07320000      -0.88700000
C        0.45120000      -2.08000000      -0.36730000
C        1.28610000      -0.94820000       0.34890000
C        1.04620000      -1.62420000       1.72370000
C       -0.23020000      -2.19340000       1.05180000
C       -1.06350000      -0.97930000       0.57250000
O       -2.19460000      -0.43260000       1.12780000
H        0.35300000       1.69510000      -0.60070000
H       -1.14730000      -0.95480000      -1.82250000
H        0.88220000      -2.91390000      -0.91450000
H        2.26600000      -0.60910000       0.01050000
H        1.78320000      -2.40750000       1.92590000
H        0.92880000      -0.98450000       2.60380000
H       -0.74850000      -3.08450000       1.40800000
H       -2.93950000      -1.00880000       0.92560000
