17
Properties=species:S:1:pos:R:3 gdb_22806=T pbc="F F F"
O       -0.00060000       1.33560000       0.07220000
N        0.02880000      -0.04600000       0.04440000
C       -1.12290000      -0.60990000       0.03650000
C       -1.13960000      -2.12030000      -0.00630000
C       -2.17310000      -2.62610000      -1.01970000
N       -3.47520000      -2.07040000      -0.66440000
C       -3.52540000      -0.62120000      -0.83400000
C       -2.46090000       0.09220000       0.00410000
O       -2.68200000       1.14950000       0.54260000
H        0.93610000       1.55780000       0.02040000
H       -0.13460000      -2.48200000      -0.23690000
H       -1.42320000      -2.50460000       0.98170000
H       -1.85020000      -2.35210000      -2.04230000
H       -2.23280000      -3.71760000      -0.97440000
H       -4.20940000      -2.50260000      -1.21350000
H       -3.34700000      -0.29690000      -1.88120000
H       -4.50120000      -0.23500000      -0.53040000
