23
Properties=species:S:1:pos:R:3 gdb_53232=T pbc="F F F"
C        0.14230000       1.56640000      -0.09830000
C        0.07480000       0.11230000      -0.05390000
C        0.02710000      -1.09190000      -0.02090000
C       -0.04390000      -2.53790000       0.03780000
C        0.28010000      -3.26470000       1.38050000
C       -0.84240000      -4.28550000       1.05940000
C       -1.68740000      -4.84050000       2.19620000
C       -1.44660000      -3.25720000       0.04360000
C       -2.59560000      -2.40020000       0.56230000
H        1.16490000       1.92310000       0.06990000
H       -0.18460000       1.95270000      -1.07040000
H       -0.49510000       2.02110000       0.66840000
H        0.56950000      -2.96920000      -0.76150000
H        1.29820000      -3.63890000       1.51210000
H        0.02490000      -2.63540000       2.23770000
H       -0.41390000      -5.12000000       0.49170000
H       -2.13590000      -4.04210000       2.79580000
H       -2.49970000      -5.47350000       1.82140000
H       -1.07590000      -5.45330000       2.86830000
H       -1.72640000      -3.68510000      -0.92400000
H       -2.36010000      -1.92790000       1.52120000
H       -2.82090000      -1.59650000      -0.14510000
H       -3.50170000      -3.00040000       0.69580000
