20
Properties=species:S:1:pos:R:3 gdb_58788=T pbc="F F F"
C       -0.11440000       1.52980000       0.13400000
C       -0.05890000      -0.00180000       0.00530000
C        0.87280000      -0.62760000       1.05100000
C       -1.44350000      -0.57640000       0.07350000
C       -2.28170000      -0.97380000       1.23590000
C       -2.02410000      -1.97800000       0.10010000
C       -2.80450000      -1.52980000      -1.08620000
N       -3.55990000      -2.08350000      -1.91890000
O       -2.34840000      -0.21250000      -1.02190000
H        0.88110000       1.96240000      -0.00590000
H       -0.78430000       1.96060000      -0.61470000
H       -0.47620000       1.82530000       1.12480000
H        0.32880000      -0.24580000      -0.99280000
H        0.91380000      -1.71720000       0.95620000
H        1.88880000      -0.24220000       0.92660000
H        0.55080000      -0.38360000       2.06900000
H       -1.75370000      -1.21280000       2.15360000
H       -3.26900000      -0.54240000       1.36720000
H       -1.57550000      -2.94730000       0.25900000
H       -3.87300000      -1.41880000      -2.62840000
