18
Properties=species:S:1:pos:R:3 gdb_76068=T pbc="F F F"
C        0.23790000       1.67760000       0.01560000
C        0.08400000       0.17480000       0.03470000
C        1.27390000      -0.75440000      -0.15150000
C        2.59760000      -0.24980000      -0.36970000
C        3.71330000       0.15270000      -0.58230000
C        0.54120000      -0.68400000       1.19710000
C        1.04260000      -0.13010000       2.50860000
N        2.19350000       0.60340000       2.50420000
O        0.39430000      -0.32400000       3.52080000
H        1.15780000       2.00310000       0.50390000
H        0.25070000       2.04700000      -1.01500000
H       -0.60200000       2.15060000       0.53450000
H       -0.82650000      -0.17940000      -0.44090000
H        1.07540000      -1.67070000      -0.70100000
H        4.69350000       0.50560000      -0.78930000
H       -0.08700000      -1.54360000       1.40030000
H        2.84140000       0.55740000       1.73200000
H        2.54410000       0.87310000       3.40990000
