19
Properties=species:S:1:pos:R:3 gdb_39642=T pbc="F F F"
C       -0.01340000       1.49150000      -0.16650000
O        1.39080000       1.59840000       0.12950000
C        1.46600000       0.21100000       0.50390000
C        0.00600000      -0.05020000       0.03610000
C       -0.96250000      -0.67670000       0.97690000
C       -1.76050000      -1.71830000       0.74720000
C       -2.58160000      -2.03070000       1.96230000
O       -2.18720000      -1.06630000       2.93500000
C       -1.19430000      -0.20250000       2.39510000
H       -0.62970000       2.04370000       0.55530000
H       -0.25280000       1.84080000      -1.17720000
H        2.24960000      -0.32520000      -0.04330000
H        1.63470000       0.08360000       1.58130000
H       -0.01890000      -0.57910000      -0.91890000
H       -1.82930000      -2.28070000      -0.17610000
H       -3.66420000      -1.95050000       1.77290000
H       -2.39790000      -3.04710000       2.34660000
H       -0.28150000      -0.25430000       3.00980000
H       -1.54580000       0.84090000       2.43700000
