18
Properties=species:S:1:pos:R:3 gdb_71359=T pbc="F F F"
C        0.01560000       1.56600000      -0.05420000
C        0.00490000       0.05790000      -0.01040000
C        0.56310000      -0.93460000      -1.04560000
N        0.01510000      -1.89870000       0.00110000
C        0.59000000      -0.91430000       1.06400000
C       -0.35810000      -1.00670000       2.24910000
O       -1.25330000       0.11390000       2.35720000
C       -1.65030000      -1.01740000       1.56260000
C       -1.20020000      -0.92910000       0.11290000
H        1.04390000       1.94100000      -0.11070000
H       -0.51700000       1.92800000      -0.94100000
H       -0.46030000       1.98440000       0.83400000
H        0.05860000      -1.00550000      -2.01440000
H        1.64910000      -0.99230000      -1.16950000
H        1.66670000      -0.98900000       1.22360000
H       -0.12800000      -1.53690000       3.16600000
H       -2.53200000      -1.55680000       1.88890000
H       -1.93420000      -1.01890000      -0.68940000
