17
Properties=species:S:1:pos:R:3 gdb_74484=T pbc="F F F"
C        0.02750000       1.52060000      -0.01000000
C       -0.05560000       0.03210000       0.01140000
C       -1.10190000      -0.79840000      -0.07970000
C       -0.62670000      -2.18790000      -0.00280000
C       -1.34420000      -3.31170000       0.70400000
C       -1.18960000      -3.34180000      -0.79590000
O        0.77560000      -2.12730000       0.14040000
C        1.16400000      -0.80520000       0.15390000
O        2.31070000      -0.47050000       0.26530000
H        0.66670000       1.85900000      -0.83260000
H       -0.95860000       1.97760000      -0.12100000
H        0.48670000       1.89410000       0.91160000
H       -2.14670000      -0.53790000      -0.19250000
H       -0.71870000      -3.97640000       1.28810000
H       -2.31950000      -3.10300000       1.12920000
H       -2.05700000      -3.15420000      -1.41890000
H       -0.46090000      -4.02660000      -1.21340000
