16
Properties=species:S:1:pos:R:3 gdb_43446=T pbc="F F F"
N       -0.14060000       1.28230000       0.01050000
C       -0.00850000       0.02730000       0.00290000
N        1.13390000      -0.77950000      -0.00690000
C        0.83510000      -2.13280000      -0.01320000
N        1.57380000      -3.16490000      -0.02240000
C       -0.65520000      -2.14960000      -0.00640000
C       -1.46010000      -3.16290000      -0.76410000
C       -1.45320000      -3.17140000       0.74710000
O       -1.08610000      -0.79730000       0.00320000
H        0.75970000       1.75430000       0.00890000
H        2.06490000      -0.39880000      -0.00920000
H        2.56710000      -2.93560000      -0.02570000
H       -2.34910000      -2.79330000      -1.26180000
H       -0.89960000      -3.92890000      -1.28740000
H       -0.88790000      -3.94320000       1.25670000
H       -2.33760000      -2.80740000       1.25710000
