16
Properties=species:S:1:pos:R:3 gdb_10965=T pbc="F F F"
C        0.00100000       1.58110000      -0.00430000
C        0.02080000       0.07330000      -0.02380000
C        0.71300000      -0.78310000      -1.13960000
C       -0.15900000      -1.95590000      -0.59520000
C        0.29650000      -2.01310000       0.85240000
C        0.41260000      -0.72230000       1.21510000
C       -1.24490000      -0.81860000      -0.39070000
O       -2.41380000      -0.67010000      -0.52030000
H        1.00870000       1.98880000       0.13020000
H       -0.40450000       1.98240000      -0.93790000
H       -0.62280000       1.95320000       0.81490000
H        0.44560000      -0.46980000      -2.15460000
H        1.79290000      -0.91120000      -1.02730000
H       -0.34410000      -2.87320000      -1.14820000
H        0.36740000      -2.90430000       1.45940000
H        0.60200000      -0.29850000       2.19190000
