19
Properties=species:S:1:pos:R:3 gdb_104258=T pbc="F F F"
C        0.16540000       1.60670000       0.16920000
C        0.19260000       0.07960000       0.05370000
C        0.69460000      -0.41700000      -1.30000000
O       -0.05530000       0.07400000      -2.37880000
C        2.21830000      -0.26350000      -1.53260000
N        2.40980000      -1.65920000      -1.06900000
C        0.99280000      -1.97220000      -1.34370000
C        0.33550000      -2.86280000      -0.39090000
N       -0.21980000      -3.54870000       0.35630000
H        1.16900000       2.03310000       0.07270000
H       -0.45830000       2.05460000      -0.60960000
H       -0.23240000       1.91100000       1.14110000
H        0.82600000      -0.35240000       0.83550000
H       -0.81350000      -0.33010000       0.22170000
H       -0.98790000       0.06640000      -2.13510000
H        2.42120000      -0.09930000      -2.59830000
H        2.75050000       0.48490000      -0.93880000
H        3.07750000      -2.21360000      -1.59280000
H        0.78840000      -2.32890000      -2.36240000
