16
Properties=species:S:1:pos:R:3 gdb_47315=T pbc="F F F"
O       -0.08300000      -0.07650000      -0.37410000
C       -0.08010000       1.11110000      -0.12450000
C       -1.34820000       1.93520000       0.05110000
C       -1.43950000       2.53950000       1.45320000
O       -0.68350000       3.73420000       1.71070000
C        0.53900000       4.05220000       1.24160000
O        1.08320000       5.03620000       1.66450000
C        1.18300000       3.25950000       0.09680000
N        1.07200000       1.81270000       0.11280000
H       -1.42890000       2.72300000      -0.70730000
H       -2.18830000       1.25250000      -0.09050000
H       -2.46950000       2.84360000       1.65350000
H       -1.15980000       1.79040000       2.20280000
H        0.79220000       3.68630000      -0.83940000
H        2.23890000       3.52290000       0.13990000
H        1.92030000       1.27960000      -0.00980000
