16
Properties=species:S:1:pos:R:3 gdb_61375=T pbc="F F F"
C       -0.00870000       1.55660000      -0.00610000
C       -0.01420000       0.02610000      -0.02300000
O        0.76940000      -0.48620000       1.09020000
C        2.09130000      -0.60560000       0.89850000
N        2.70680000      -0.27870000      -0.15940000
C        2.74750000      -1.19810000       2.12980000
O        3.93190000      -1.40020000       2.17980000
C       -1.35380000      -0.53420000       0.10440000
C       -2.47080000      -0.96780000       0.18330000
H        1.01220000       1.92150000      -0.13320000
H       -0.62360000       1.93380000      -0.82730000
H       -0.41970000       1.92610000       0.93650000
H        0.45940000      -0.32930000      -0.94410000
H        3.69830000      -0.49380000      -0.03480000
H        2.05840000      -1.42700000       2.96590000
H       -3.45540000      -1.36050000       0.25140000
