18
Properties=species:S:1:pos:R:3 gdb_6622=T pbc="F F F"
C       -0.01020000       1.49930000       0.02400000
C        0.00420000       0.04740000       0.00830000
C        0.01640000      -1.16290000      -0.00490000
C        0.03090000      -2.52320000      -0.01960000
C        0.04230000      -3.73460000      -0.03530000
C        0.05140000      -5.19430000      -0.06220000
C       -1.38260000      -5.76010000      -0.00020000
C        0.81120000      -5.72250000      -1.29670000
H        1.00720000       1.90690000       0.02390000
H       -0.52890000       1.90120000      -0.85390000
H       -0.52090000       1.88200000       0.91510000
H        0.58680000      -5.54070000       0.83360000
H       -1.35450000      -6.85410000       0.02700000
H       -1.90820000      -5.40420000       0.88950000
H       -1.95590000      -5.45200000      -0.87970000
H        1.83480000      -5.34020000      -1.32250000
H        0.84920000      -6.81630000      -1.27550000
H        0.30950000      -5.41310000      -2.21850000
