16
Properties=species:S:1:pos:R:3 gdb_23532=T pbc="F F F"
O       -0.09950000       1.28830000      -0.00200000
N        0.05610000      -0.10780000      -0.08240000
C       -1.05330000      -0.69900000       0.06050000
C       -1.40410000      -2.13440000      -0.05430000
C       -2.29810000      -2.53790000       1.10570000
C       -2.89930000      -1.74660000      -0.00520000
C       -2.52870000      -0.24610000       0.14190000
C       -3.00320000       0.46490000       1.31440000
C       -3.40640000       1.02830000       2.29670000
H        0.80330000       1.59950000      -0.12610000
H       -0.89420000      -2.86410000      -0.66910000
H       -2.55410000      -3.59240000       1.12080000
H       -2.16300000      -2.09140000       2.08610000
H       -3.70420000      -2.11140000      -0.62900000
H       -2.76290000       0.31820000      -0.76790000
H       -3.75510000       1.53810000       3.16030000
