21
Properties=species:S:1:pos:R:3 gdb_86786=T pbc="F F F"
C        0.14580000       1.59090000       0.09130000
C        0.03850000       0.08270000      -0.04760000
C        0.67780000      -0.62350000      -1.27140000
C        1.19140000      -1.67250000      -0.25710000
C        2.64810000      -2.14140000      -0.39180000
C        3.05390000      -3.04740000       0.68090000
N        3.35100000      -3.76530000       1.53690000
N        0.93010000      -0.71320000       0.82670000
C        0.41840000      -1.19810000       2.09330000
H        1.18380000       1.91530000      -0.02870000
H       -0.46940000       2.09390000      -0.66290000
H       -0.20100000       1.92040000       1.07670000
H       -1.01520000      -0.22970000       0.06180000
H        0.01010000      -0.97660000      -2.05730000
H        1.48670000      -0.03630000      -1.71520000
H        0.52880000      -2.55320000      -0.21790000
H        2.78370000      -2.65420000      -1.35150000
H        3.30660000      -1.26660000      -0.38420000
H        1.16420000      -1.83260000       2.57990000
H        0.21390000      -0.35080000       2.75590000
H       -0.51460000      -1.78230000       1.98450000
