20
Properties=species:S:1:pos:R:3 gdb_12885=T pbc="F F F"
C       -0.16150000       1.56780000      -0.00800000
C        0.02330000       0.06450000       0.05520000
C        1.33170000      -0.64940000      -0.21860000
C        2.61620000       0.14660000      -0.09990000
O        2.54100000       0.84580000       1.14180000
C        1.68950000       0.12580000       2.02830000
C        0.72550000      -0.68340000       1.17110000
C        0.10880000      -1.91690000       1.78580000
H        0.71040000       2.10140000       0.37330000
H       -0.33300000       1.89030000      -1.04120000
H       -1.03480000       1.87500000       0.57850000
H       -0.83610000      -0.48330000      -0.32830000
H        1.33600000      -1.52940000      -0.85330000
H        3.48310000      -0.53370000      -0.12010000
H        2.75900000       0.89980000      -0.88330000
H        2.27190000      -0.55910000       2.66730000
H        1.20370000       0.86230000       2.67950000
H       -0.56310000      -1.65950000       2.61350000
H       -0.47880000      -2.47310000       1.04900000
H        0.87620000      -2.59280000       2.18170000
