12
Properties=species:S:1:pos:R:3 gdb_25323=T pbc="F F F"
O       -0.04070000      -0.06830000      -0.00010000
C       -0.01590000       1.14030000       0.00980000
C        1.23100000       1.91660000       0.00200000
C        1.35410000       3.28850000       0.01190000
O        2.66300000       3.64380000       0.00060000
C        3.38340000       2.48960000      -0.01750000
C        2.56700000       1.40580000      -0.01810000
C        0.38490000       4.31430000       0.03160000
N       -0.43390000       5.13360000       0.04820000
H       -0.94630000       1.74360000       0.02570000
H        4.45310000       2.61740000      -0.02840000
H        2.84750000       0.36550000      -0.03050000
