20
Properties=species:S:1:pos:R:3 gdb_58379=T pbc="F F F"
C        0.17070000       1.21340000       0.29370000
C       -0.14690000      -0.21720000      -0.16410000
C       -1.65590000      -0.48380000      -0.23950000
N        0.55300000      -0.55390000      -1.41770000
C        1.81690000      -1.28530000      -1.33710000
C        1.66880000      -2.62000000      -0.76070000
C        1.55110000      -3.70960000      -0.26770000
C        0.16690000      -0.07280000      -2.63280000
O        0.75930000      -0.24420000      -3.68070000
H        1.25060000       1.37540000       0.36290000
H       -0.23740000       1.94860000      -0.40770000
H       -0.26480000       1.40790000       1.27890000
H        0.26040000      -0.91520000       0.57400000
H       -2.17250000       0.22190000      -0.89660000
H       -1.85130000      -1.49750000      -0.59860000
H       -2.09460000      -0.38000000       0.75760000
H        2.19700000      -1.34470000      -2.36090000
H        2.54780000      -0.71280000      -0.74860000
H        1.45180000      -4.68060000       0.15090000
H       -0.77160000       0.50580000      -2.57560000
