19
Properties=species:S:1:pos:R:3 gdb_60516=T pbc="F F F"
C       -0.08030000       1.59900000      -0.11700000
C       -0.06780000       0.06340000       0.07460000
C        0.77460000      -0.36040000       1.25900000
C        1.44850000      -1.70820000       1.27330000
C        2.27210000      -0.45220000       1.12110000
C       -1.50390000      -0.40390000       0.22270000
O       -2.06900000      -0.59620000       1.27470000
C       -2.31810000      -0.62280000      -1.06420000
O       -1.86730000      -0.50550000      -2.17320000
H        0.94250000       1.95750000      -0.25910000
H       -0.66940000       1.88900000      -0.99150000
H       -0.49800000       2.09490000       0.76500000
H        0.32520000      -0.38020000      -0.84810000
H        0.39430000      -0.00880000       2.21300000
H        1.49580000      -2.24880000       2.21170000
H        1.33560000      -2.34410000       0.40080000
H        2.70700000      -0.25020000       0.14720000
H        2.88730000      -0.13200000       1.95450000
H       -3.36980000      -0.91460000      -0.85690000
