22
Properties=species:S:1:pos:R:3 gdb_114738=T pbc="F F F"
C       -0.02120000       1.56910000       0.09800000
C       -0.00090000       0.03860000       0.02890000
C        0.71400000      -0.51190000      -1.20530000
C        2.22420000      -0.15800000      -1.32320000
C        2.82180000      -1.29500000      -2.14430000
N        3.04960000      -2.52370000      -1.35120000
C        1.85060000      -2.41710000      -2.21070000
C        0.62520000      -2.06330000      -1.35400000
O        0.63670000      -2.76010000      -0.12350000
H        0.99070000       1.98510000       0.14920000
H       -0.51130000       2.00210000      -0.78190000
H       -0.56400000       1.91600000       0.98290000
H        0.47450000      -0.37310000       0.92550000
H       -1.03020000      -0.34130000       0.03920000
H        0.22750000      -0.10270000      -2.10330000
H        2.37770000       0.80950000      -1.80900000
H        2.70560000      -0.11080000      -0.33980000
H        3.50610000      -1.08370000      -2.95970000
H        3.74620000      -3.11230000      -1.80000000
H        1.76110000      -3.07320000      -3.06960000
H       -0.30630000      -2.34200000      -1.85760000
H        1.57640000      -2.86310000       0.09340000
