21
Properties=species:S:1:pos:R:3 gdb_62176=T pbc="F F F"
C       -0.06260000       1.58810000       0.17100000
C        0.03390000       0.05320000       0.05060000
C        0.70970000      -0.40950000      -1.26410000
C       -0.06740000      -0.04240000      -2.53160000
C        0.59310000      -0.61990000      -3.80080000
C       -0.12490000      -0.27640000      -5.02210000
C       -0.73710000       0.02170000      -6.01270000
C        0.74040000      -0.50680000       1.20260000
C        1.34220000      -0.95830000       2.14060000
H        0.93340000       2.03990000       0.12780000
H       -0.66870000       2.00720000      -0.63640000
H       -0.52030000       1.87060000       1.12220000
H       -0.98890000      -0.35080000       0.05660000
H        1.72140000       0.01410000      -1.30700000
H        0.83500000      -1.49780000      -1.21880000
H       -1.09500000      -0.41990000      -2.46450000
H       -0.14200000       1.04410000      -2.64280000
H        1.62720000      -0.25710000      -3.87060000
H        0.66240000      -1.71210000      -3.71200000
H       -1.26880000       0.27800000      -6.89510000
H        1.86210000      -1.36230000       2.97350000
