18
Properties=species:S:1:pos:R:3 gdb_50478=T pbc="F F F"
O       -0.09690000      -0.04480000      -0.03610000
C       -0.02640000       1.16520000      -0.03160000
N        1.12880000       1.89070000      -0.07760000
C        2.42470000       1.22970000      -0.10310000
C        3.27220000       1.64490000       1.11730000
C        3.31060000       3.15930000       1.27450000
O        4.33480000       3.77750000       1.43960000
C        1.94580000       3.83740000       1.19770000
C        1.14600000       3.33940000      -0.02540000
H       -0.91810000       1.82200000       0.00910000
H        2.24060000       0.15490000      -0.11510000
H        2.95290000       1.50020000      -1.02760000
H        2.81710000       1.21880000       2.02080000
H        4.29460000       1.26940000       1.03710000
H        1.38860000       3.58380000       2.10890000
H        2.08770000       4.92000000       1.16790000
H        1.60070000       3.73830000      -0.94320000
H        0.11540000       3.70400000       0.01200000
