25
Properties=species:S:1:pos:R:3 gdb_86463=T pbc="F F F"
C       -0.03970000       1.58660000       0.01100000
C        0.02080000       0.05710000       0.00230000
C        0.71290000      -0.48840000      -1.25610000
C        0.84160000      -2.01540000      -1.20550000
C        1.62160000      -2.59060000      -2.37900000
O        1.51340000      -2.42500000      -0.01970000
C        0.85530000      -2.02830000       1.17800000
C        1.64870000      -2.61620000       2.33620000
C        0.72730000      -0.50190000       1.24670000
H        0.96770000       2.01910000       0.00750000
H       -0.56810000       1.96850000      -0.86940000
H       -0.55790000       1.95890000       0.90140000
H       -1.01180000      -0.32460000       0.00620000
H        0.15860000      -0.19460000      -2.15590000
H        1.71940000      -0.05530000      -1.33970000
H       -0.17630000      -2.44850000      -1.20130000
H        2.63680000      -2.18210000      -2.39860000
H        1.69310000      -3.67820000      -2.29310000
H        1.13030000      -2.34620000      -3.32580000
H       -0.16260000      -2.46140000       1.18090000
H        2.66410000      -2.20780000       2.34860000
H        1.16840000      -2.38210000       3.29120000
H        1.71920000      -3.70280000       2.23780000
H        1.73470000      -0.06970000       1.32340000
H        0.18340000      -0.21790000       2.15600000
