27
Properties=species:S:1:pos:R:3 gdb_122950=T pbc="F F F"
C       -0.20200000       1.52050000       0.10460000
C        0.00890000       0.00750000      -0.01310000
C        0.81630000      -0.44660000      -1.24520000
C        2.25880000       0.07980000      -1.20790000
C        0.76660000      -1.98150000      -1.37020000
C        1.33930000      -2.55490000      -2.67260000
C        1.15050000      -4.07130000      -2.78370000
C        1.71870000      -4.65040000      -4.07220000
O        1.48370000      -6.05130000      -4.06750000
H        0.73950000       2.05960000       0.24720000
H       -0.68190000       1.92340000      -0.79470000
H       -0.84550000       1.75890000       0.95740000
H        0.50380000      -0.36550000       0.89470000
H       -0.97290000      -0.48250000      -0.04310000
H        0.32440000      -0.02500000      -2.13570000
H        2.79320000      -0.31600000      -0.33510000
H        2.82000000      -0.21080000      -2.10050000
H        2.29030000       1.17140000      -1.14910000
H        1.29330000      -2.42870000      -0.51460000
H       -0.27950000      -2.30440000      -1.28070000
H        0.85460000      -2.06240000      -3.52770000
H        2.40800000      -2.31940000      -2.75130000
H        1.63120000      -4.57510000      -1.93580000
H        0.08440000      -4.32430000      -2.73070000
H        1.23740000      -4.16920000      -4.93990000
H        2.79690000      -4.42820000      -4.13630000
H        1.84140000      -6.41860000      -4.88080000
