18
Properties=species:S:1:pos:R:3 gdb_13603=T pbc="F F F"
C        0.94280000       1.53370000      -0.02660000
N        1.05550000       0.10520000      -0.24300000
C        0.16460000      -0.59760000      -1.00150000
O       -0.78770000      -0.07510000      -1.56300000
C        0.46690000      -2.07000000      -1.08290000
C       -0.65570000      -2.98970000      -1.44700000
N        0.44760000      -2.79540000      -2.36230000
C        0.19980000      -2.08010000      -3.61340000
H        1.79440000       2.07340000      -0.45640000
H        0.02840000       1.86460000      -0.52000000
H        0.88200000       1.76940000       1.04150000
H        1.83210000      -0.38670000       0.16580000
H        1.24040000      -2.42560000      -0.40330000
H       -0.72390000      -3.96640000      -0.97430000
H       -1.60050000      -2.49790000      -1.67000000
H       -0.52850000      -1.26680000      -3.52720000
H        1.14740000      -1.66980000      -3.97750000
H       -0.15450000      -2.81040000      -4.34760000
