17
Properties=species:S:1:pos:R:3 gdb_104952=T pbc="F F F"
O        0.16180000       1.30380000      -0.40090000
C        0.00420000       0.01650000       0.15830000
C       -1.42440000      -0.50820000       0.05250000
C       -1.86250000      -1.14050000      -1.26630000
C       -1.63500000      -2.01550000      -0.07660000
C       -2.39710000       0.24800000       0.77820000
C       -3.19910000       0.91390000       1.39590000
C       -4.14620000       1.70020000       2.13610000
O       -5.32840000       1.45250000       2.22210000
H       -0.40930000       1.90630000       0.08860000
H        0.66960000      -0.64460000      -0.40600000
H        0.32270000      -0.00880000       1.21160000
H       -2.88130000      -0.96500000      -1.58850000
H       -1.12400000      -1.13280000      -2.06010000
H       -0.73990000      -2.62750000      -0.04290000
H       -2.49510000      -2.44060000       0.42590000
H       -3.70330000       2.58250000       2.64270000
