18
Properties=species:S:1:pos:R:3 gdb_51364=T pbc="F F F"
O       -0.70580000       1.83040000       1.58870000
C       -0.33900000       1.90480000       0.44660000
C        1.10640000       1.80210000      -0.00790000
C        1.42510000       2.86240000      -1.06280000
C        2.42770000       3.98100000      -1.02410000
C        3.87480000       3.53780000      -0.72820000
C        4.12080000       2.08530000      -0.57700000
N        3.91810000       2.63280000      -1.93090000
C        2.46260000       2.97700000      -2.16300000
H       -1.07140000       2.04930000      -0.38400000
H        1.73370000       1.87120000       0.88210000
H        1.22350000       0.79240000      -0.42930000
H        0.50050000       3.24980000      -1.49850000
H        2.15030000       5.02710000      -1.04040000
H        4.66240000       4.26740000      -0.57040000
H        5.15730000       1.79730000      -0.41920000
H        3.40690000       1.40330000      -0.14220000
H        2.16700000       3.08160000      -3.19990000
