23
Properties=species:S:1:pos:R:3 gdb_93099=T pbc="F F F"
C       -0.00420000       1.57550000      -0.02940000
C        0.06680000       0.04560000       0.01840000
C        0.65900000      -0.53380000      -1.27930000
C        0.93760000      -2.00950000      -1.19850000
C        0.93420000      -2.68780000      -0.05240000
C        0.65720000      -2.04390000       1.28080000
C        0.80330000      -0.50650000       1.26240000
C        2.28370000      -0.10200000       1.31820000
O        0.11400000       0.04780000       2.38940000
H        0.98200000       2.02320000      -0.19430000
H       -0.64830000       1.89920000      -0.85400000
H       -0.40980000       1.97510000       0.90180000
H       -0.96150000      -0.32970000       0.10940000
H       -0.03120000      -0.33130000      -2.10900000
H        1.58320000       0.00340000      -1.54360000
H        1.15370000      -2.52390000      -2.13210000
H        1.13100000      -3.75730000      -0.05320000
H       -0.36390000      -2.27910000       1.61100000
H        1.32340000      -2.46710000       2.04620000
H        2.85300000      -0.53190000       0.48940000
H        2.39710000       0.98440000       1.30050000
H        2.73470000      -0.47080000       2.24760000
H        0.56220000      -0.25580000       3.18600000
