18
Properties=species:S:1:pos:R:3 gdb_13882=T pbc="F F F"
C       -0.02140000       1.52040000      -0.06800000
C       -0.02980000      -0.00200000       0.01280000
O        0.77740000      -0.48980000       1.08130000
C       -1.45750000      -0.56930000       0.14800000
O       -2.27670000      -0.11830000      -0.93380000
C       -2.87690000      -1.22780000      -1.60090000
C       -2.32180000      -2.44290000      -0.91280000
C       -1.52500000      -2.07030000       0.08150000
H        1.00040000       1.89170000      -0.18490000
H       -0.62820000       1.86080000      -0.91030000
H       -0.44470000       1.95710000       0.84660000
H        0.41290000      -0.42370000      -0.89700000
H        0.52910000      -0.00700000       1.87760000
H       -1.87450000      -0.19070000       1.10110000
H       -3.97450000      -1.16530000      -1.52240000
H       -2.62800000      -1.19400000      -2.67260000
H       -2.56290000      -3.45470000      -1.21310000
H       -0.97190000      -2.70460000       0.75990000
