17
Properties=species:S:1:pos:R:3 gdb_16541=T pbc="F F F"
C       -0.05200000       1.39170000      -0.12110000
N       -0.03530000      -0.02960000       0.11700000
C       -1.09630000      -1.03480000       0.06930000
C       -1.54640000      -1.44640000      -1.36340000
C       -0.41220000      -2.51480000      -1.41100000
C        0.02780000      -2.12150000       0.03500000
C        1.00750000      -0.93250000       0.04590000
O        2.19840000      -0.77410000      -0.03580000
H        0.98560000       1.73130000      -0.16760000
H       -0.54570000       1.63920000      -1.07020000
H       -0.56430000       1.92770000       0.68590000
H       -1.84940000      -0.94890000       0.85490000
H       -2.54780000      -1.88270000      -1.38670000
H       -1.50040000      -0.64840000      -2.10860000
H       -0.79020000      -3.53660000      -1.47660000
H        0.35610000      -2.38340000      -2.17570000
H        0.15570000      -2.90200000       0.78200000
