14
Properties=species:S:1:pos:R:3 gdb_26080=T pbc="F F F"
O        0.56700000       1.55960000      -0.19390000
C        0.14730000       0.22480000       0.01670000
C        0.37080000      -0.60830000      -1.18940000
N        0.55690000      -1.25270000      -2.12990000
C        0.78700000      -0.40250000       1.22940000
C        1.29920000       0.28210000       2.28900000
O        1.77680000      -0.57910000       3.22140000
C        1.56270000      -1.83580000       2.75010000
C        0.96100000      -1.79510000       1.53460000
H        1.52750000       1.55190000      -0.28900000
H       -0.93900000       0.29390000       0.15610000
H        1.38530000       1.33090000       2.51550000
H        1.89810000      -2.63810000       3.38580000
H        0.68570000      -2.63560000       0.91730000
