15
Properties=species:S:1:pos:R:3 gdb_127698=T pbc="F F F"
C       -0.08540000       1.40460000      -0.03740000
N       -0.10800000      -0.04420000       0.02820000
N       -0.28020000      -0.80550000      -1.04810000
N       -0.24630000      -2.03870000      -0.61670000
C       -0.05100000      -1.97590000       0.72440000
N        0.03930000      -0.71970000       1.15510000
C        0.05470000      -3.18720000       1.57070000
N       -0.23330000      -4.33910000       0.87290000
N        0.35370000      -3.06020000       2.80670000
H        0.87580000       1.77270000       0.32600000
H       -0.23000000       1.68480000      -1.07970000
H       -0.88760000       1.81170000       0.58100000
H       -0.23580000      -4.28180000      -0.13440000
H        0.06050000      -5.21450000       1.27360000
H        0.38990000      -3.97160000       3.26790000
