14
Properties=species:S:1:pos:R:3 gdb_46243=T pbc="F F F"
O       -0.05060000       0.07320000      -0.22010000
C        0.00230000       1.23290000       0.01980000
O       -0.99550000       2.06300000       0.48420000
C       -0.10570000       3.22690000       0.51190000
C        1.02300000       2.34400000      -0.00170000
C        2.47310000       2.25290000       0.34550000
C        2.06690000       2.62850000      -1.06560000
C        2.27170000       1.71440000      -2.15640000
N        2.45470000       1.00260000      -3.04860000
H       -0.46350000       4.00640000      -0.16390000
H        0.00220000       3.60880000       1.52950000
H        2.90710000       3.03540000       0.95750000
H        2.87460000       1.25780000       0.49980000
H        2.17700000       3.67370000      -1.33870000
