19
Properties=species:S:1:pos:R:3 gdb_39115=T pbc="F F F"
C       -0.28220000       1.31850000       0.29970000
C        1.07700000       0.83730000      -0.10340000
O        1.81210000       0.36690000       1.03000000
C        0.83260000      -0.68440000       1.23590000
C       -0.04060000      -0.16450000       0.09320000
C       -0.78320000      -0.99910000      -0.89800000
C       -2.29700000      -1.26520000      -0.68700000
C       -2.45630000      -0.62230000      -2.07650000
O       -1.05340000      -0.27550000      -2.12470000
H       -0.43040000       1.73180000       1.29390000
H       -0.85410000       1.77720000      -0.50030000
H        1.63000000       1.15630000      -0.97880000
H        1.27510000      -1.66660000       1.02860000
H        0.41310000      -0.67390000       2.24910000
H       -0.21280000      -1.91650000      -1.10880000
H       -2.59620000      -2.31000000      -0.59420000
H       -2.73110000      -0.68550000       0.12940000
H       -2.72740000      -1.31750000      -2.88110000
H       -3.09760000       0.26350000      -2.14160000
