21
Properties=species:S:1:pos:R:3 gdb_10517=T pbc="F F F"
C       -0.63110000       0.86650000       0.60110000
C        0.25080000      -0.33520000       0.23590000
C        0.55320000      -0.45500000      -1.24840000
C        1.38850000       0.65340000      -1.85320000
O        2.63160000       0.69860000      -1.18210000
C        3.46960000       1.72560000      -1.65270000
C        0.64270000      -1.80760000      -1.85250000
N       -0.50220000      -0.92830000      -2.16500000
H       -0.13510000       1.81470000       0.37340000
H       -1.58080000       0.84870000       0.05540000
H       -0.86040000       0.86540000       1.67100000
H        1.20090000      -0.27050000       0.77700000
H       -0.23840000      -1.25980000       0.56750000
H        1.52360000       0.46200000      -2.92880000
H        0.86860000       1.62210000      -1.76160000
H        4.39500000       1.68710000      -1.07260000
H        3.71350000       1.59810000      -2.71950000
H        3.01080000       2.71940000      -1.52540000
H        1.31800000      -1.99040000      -2.68400000
H        0.47890000      -2.66620000      -1.20650000
H       -1.31440000      -1.22140000      -1.62620000
