17
Properties=species:S:1:pos:R:3 gdb_88885=T pbc="F F F"
N       -0.03630000       0.59630000       1.06070000
C       -0.20220000      -0.24490000      -0.00060000
C        1.07830000      -0.83940000      -0.52050000
O        2.15140000      -0.65520000       0.00140000
N       -1.24890000      -0.58950000      -0.65870000
C       -2.54410000      -0.04540000      -0.38320000
C       -3.68390000      -0.97970000      -0.04100000
C       -3.23180000       0.05940000       0.95830000
O       -2.51300000      -0.33930000       2.09400000
H        0.89180000       0.55400000       1.46060000
H       -0.80160000       0.66600000       1.71670000
H        0.93430000      -1.46290000      -1.42220000
H       -2.79200000       0.75590000      -1.07860000
H       -4.64490000      -0.87040000      -0.53120000
H       -3.38560000      -2.00000000       0.17710000
H       -3.87380000       0.92610000       1.11780000
H       -3.11770000      -0.76110000       2.71280000
