17
Properties=species:S:1:pos:R:3 gdb_49924=T pbc="F F F"
O       -0.93960000       0.55690000       0.10300000
C       -0.29470000       1.55680000      -0.07020000
C        1.21240000       1.66750000       0.11080000
C        1.88650000       2.41950000      -1.07150000
C        2.13380000       3.88300000      -0.57710000
C        1.98950000       3.75200000       0.93130000
C        1.51310000       2.56500000       1.29520000
C        3.41490000       4.43690000      -1.00280000
C        4.47450000       4.88690000      -1.34910000
H       -0.78160000       2.51490000      -0.37250000
H        1.59520000       0.65090000       0.24230000
H        2.84500000       1.94760000      -1.29550000
H        1.28930000       2.39670000      -1.98710000
H        1.34150000       4.54550000      -0.95550000
H        2.25190000       4.56390000       1.59890000
H        1.30240000       2.25670000       2.31270000
H        5.40930000       5.28610000      -1.65620000
