18
Properties=species:S:1:pos:R:3 gdb_20104=T pbc="F F F"
C        0.48320000       1.44790000       0.08490000
O        1.05910000       0.23360000      -0.40140000
C       -0.29540000       0.19850000       0.05740000
C       -0.57270000      -0.60200000       1.27690000
C        0.49170000      -0.96850000       2.27010000
C       -0.25250000      -2.07570000       1.57260000
C       -1.63200000      -2.26950000       2.21180000
C       -1.96590000      -0.77210000       1.90410000
H        0.88040000       1.80230000       1.03460000
H        0.30840000       2.21460000      -0.66860000
H       -1.02700000       0.08580000      -0.74620000
H        1.50420000      -0.80840000       1.91510000
H        0.34200000      -0.78840000       3.33320000
H        0.26440000      -2.79220000       0.94570000
H       -2.27500000      -2.95760000       1.65890000
H       -1.63080000      -2.56650000       3.26580000
H       -2.19060000      -0.12190000       2.75610000
H       -2.77310000      -0.67450000       1.17300000
