15
Properties=species:S:1:pos:R:3 gdb_124411=T pbc="F F F"
C       -0.02610000       1.56530000       0.04470000
C       -0.02300000       0.02930000       0.04610000
C        0.71360000      -0.52550000       1.18010000
C        1.34200000      -0.95700000       2.10710000
N       -1.40220000      -0.48930000       0.01230000
N       -1.80580000      -1.39120000      -0.87540000
C       -3.07180000      -1.55710000      -0.51370000
N       -3.41850000      -0.79140000       0.54530000
N       -2.34200000      -0.11790000       0.86990000
H        1.00470000       1.92540000       0.02460000
H       -0.55290000       1.93790000      -0.83740000
H       -0.51720000       1.94440000       0.94190000
H        0.41400000      -0.34250000      -0.88490000
H        1.89050000      -1.34730000       2.92910000
H       -3.74780000      -2.22890000      -1.01680000
