16
Properties=species:S:1:pos:R:3 gdb_20206=T pbc="F F F"
C       -0.00840000       1.54080000      -0.03320000
O        1.35450000       1.96930000       0.06530000
C        2.05050000       0.95730000       0.81030000
C        1.63420000       1.06860000       2.27410000
C        0.64550000       0.21290000       2.54190000
C        0.36590000      -0.67310000       1.36920000
C        0.01870000       0.01390000       0.03430000
C        1.43080000      -0.37950000       0.34900000
H       -0.60730000       1.97830000       0.77730000
H       -0.40450000       1.89950000      -0.98800000
H        3.11540000       1.08640000       0.60910000
H        1.98370000       1.86820000       2.91580000
H        0.07370000       0.16990000       3.46200000
H       -0.01190000      -1.67830000       1.51900000
H       -0.56950000      -0.54970000      -0.68100000
H        1.99410000      -1.12990000      -0.18920000
