16
Properties=species:S:1:pos:R:3 gdb_94534=T pbc="F F F"
O        0.45890000       1.33380000       0.01750000
C        0.16070000      -0.02660000      -0.02310000
C        0.17270000      -0.77650000       1.33420000
N       -1.30250000      -0.66640000       1.38470000
C       -1.38660000      -0.39690000      -0.06470000
C       -2.28440000       0.75000000      -0.44910000
O       -2.35030000       1.78660000       0.17640000
C       -3.10360000       0.63680000      -1.73940000
O       -3.10810000      -0.33920000      -2.44300000
H       -0.18210000       1.76660000       0.59960000
H        0.75750000      -0.46060000      -0.82580000
H        0.55970000      -1.80060000       1.24140000
H        0.69450000      -0.26740000       2.15130000
H       -1.80300000      -1.49050000       1.69740000
H       -1.58040000      -1.26490000      -0.70380000
H       -3.69470000       1.55170000      -1.95430000
