23
Properties=species:S:1:pos:R:3 gdb_111224=T pbc="F F F"
C       -0.00290000       1.56180000       0.05480000
C       -0.02870000       0.03680000      -0.09650000
C       -1.43400000      -0.55170000       0.01470000
C       -1.50870000      -2.11210000       0.02870000
C       -1.37390000      -2.03710000       1.57790000
C       -2.04990000      -0.63660000       1.45700000
C       -3.54140000      -0.85800000       1.30790000
C       -3.95500000      -1.78490000       0.44230000
C       -2.93010000      -2.56870000      -0.35010000
H        1.01360000       1.95470000      -0.04700000
H       -0.62500000       2.04400000      -0.70750000
H       -0.38210000       1.87300000       1.03400000
H        0.38480000      -0.23750000      -1.07680000
H        0.63890000      -0.41470000       0.64740000
H       -2.08600000      -0.06390000      -0.71940000
H       -0.74540000      -2.66140000      -0.53050000
H       -1.89570000      -2.78930000       2.17490000
H       -0.33180000      -1.97800000       1.89810000
H       -1.79840000       0.13640000       2.18550000
H       -4.23670000      -0.26970000       1.89900000
H       -5.00850000      -1.99970000       0.28710000
H       -3.09780000      -2.43180000      -1.42830000
H       -3.04790000      -3.64610000      -0.16430000
