16
Properties=species:S:1:pos:R:3 gdb_125713=T pbc="F F F"
C       -0.05650000       1.45530000      -0.02140000
C       -0.01780000      -0.04700000       0.03340000
N       -0.00850000      -0.64580000      -1.10680000
O        0.01800000      -2.02750000      -1.13060000
C        0.03710000      -2.81540000       0.02490000
N        0.06270000      -4.08200000      -0.08150000
C        0.03340000      -2.10990000       1.27800000
C        0.00110000      -0.75750000       1.31290000
N       -0.08030000      -0.01290000       2.47140000
H        0.84000000       1.89570000       0.43350000
H       -0.10370000       1.77750000      -1.06190000
H       -0.92870000       1.84580000       0.51430000
H        0.06430000      -4.35810000      -1.06390000
H        0.05230000      -2.71840000       2.17400000
H        0.13180000      -0.50260000       3.32770000
H        0.29330000       0.92230000       2.44480000
