17
Properties=species:S:1:pos:R:3 gdb_105302=T pbc="F F F"
O        0.07180000       1.41480000      -0.33890000
C        0.07710000       0.08000000       0.11650000
C       -1.32420000      -0.52080000       0.11140000
C       -1.89420000      -1.16520000      -1.12620000
C       -1.57070000      -2.04680000       0.04920000
C       -0.42650000      -2.99370000      -0.01930000
O       -0.38700000      -4.03290000       0.58870000
C       -2.30590000       0.20000000       0.96570000
O       -2.05870000       1.22060000       1.56520000
H       -0.43000000       1.91560000       0.31700000
H        0.73520000      -0.47560000      -0.55690000
H        0.49560000      -0.00250000       1.13060000
H       -2.94120000      -1.01580000      -1.36690000
H       -1.23450000      -1.20230000      -1.98720000
H       -2.39630000      -2.42050000       0.64750000
H        0.39970000      -2.69230000      -0.70010000
H       -3.31660000      -0.26370000       1.01790000
