17
Properties=species:S:1:pos:R:3 gdb_18876=T pbc="F F F"
O        0.02470000       1.47370000       0.12320000
C       -0.01040000       0.06930000      -0.02760000
C       -1.38610000      -0.55380000      -0.05420000
C       -2.04450000      -0.43190000      -1.37990000
C       -1.62750000       0.65790000      -2.35840000
C       -0.11810000       0.37510000      -2.56930000
C        0.21800000      -0.57780000      -1.42780000
N       -1.00350000      -1.47040000      -1.21430000
H        0.93280000       1.74080000       0.29640000
H        0.61170000      -0.42380000       0.72960000
H       -1.91750000      -0.92880000       0.81540000
H       -3.05240000      -0.83240000      -1.43770000
H       -2.19270000       0.57490000      -3.29090000
H       -1.80010000       1.65440000      -1.94600000
H        0.06340000      -0.11210000      -3.53220000
H        0.48700000       1.28430000      -2.52650000
H        1.13670000      -1.15120000      -1.55510000
