19
Properties=species:S:1:pos:R:3 gdb_31783=T pbc="F F F"
C       -0.74350000       0.86750000      -0.06530000
N        0.48580000       0.09590000       0.15210000
C        1.00930000      -0.55300000      -0.98310000
C        1.82190000      -0.13240000      -2.00720000
C        2.05740000      -1.24490000      -2.87360000
C        1.36060000      -2.30050000      -2.33790000
O        1.20000000      -3.59700000      -2.72120000
N        0.72860000      -1.90560000      -1.19380000
C       -0.06370000      -2.75860000      -0.33420000
H       -0.64190000       1.65180000      -0.83080000
H       -1.54440000       0.19280000      -0.38260000
H       -1.04900000       1.33230000       0.87760000
H        1.19310000       0.67830000       0.58220000
H        2.21290000       0.86700000      -2.12640000
H        2.65320000      -1.26250000      -3.77320000
H        1.71070000      -3.73410000      -3.52450000
H        0.45380000      -3.70560000      -0.16140000
H       -0.20120000      -2.23460000       0.61250000
H       -1.04400000      -2.97780000      -0.77240000
