14
Properties=species:S:1:pos:R:3 gdb_29433=T pbc="F F F"
O        0.08200000       1.36030000       0.00590000
C        0.06170000       0.01140000      -0.05690000
C       -0.00280000      -0.76190000      -1.18590000
N        0.00390000      -2.06980000      -0.70770000
C        0.06980000      -1.99230000       0.63590000
N        0.09570000      -3.10870000       1.46590000
C        0.05830000      -4.40380000       1.04470000
O       -0.00290000      -4.75140000      -0.12040000
N        0.10710000      -0.75140000       1.08040000
H        0.13000000       1.58860000       0.94160000
H       -0.05020000      -0.52610000      -2.23310000
H       -0.03200000      -2.94580000      -1.20780000
H        0.14610000      -2.90460000       2.45270000
H        0.08990000      -5.11560000       1.88730000
