14
Properties=species:S:1:pos:R:3 gdb_7727=T pbc="F F F"
O        0.09070000       0.29070000       0.94720000
C       -0.01790000       1.20970000       0.17750000
C       -1.31210000       1.98750000      -0.02820000
C       -1.22600000       2.88370000      -1.25850000
O       -0.08460000       3.75370000      -1.19380000
C        1.12990000       3.20930000      -0.92230000
O        2.10420000       3.90390000      -0.88140000
C        1.14300000       1.70580000      -0.68210000
H       -2.15070000       1.28850000      -0.09580000
H       -1.47420000       2.60050000       0.86730000
H       -1.18150000       2.28930000      -2.18040000
H       -2.08760000       3.54890000      -1.33170000
H        2.10040000       1.40870000      -0.25680000
H        1.04290000       1.21290000      -1.66140000
