17
Properties=species:S:1:pos:R:3 gdb_48603=T pbc="F F F"
O       -0.66830000       0.86870000       0.70460000
C        0.17430000       0.95350000      -0.15450000
C        1.38390000       1.81730000      -0.05440000
C        1.76900000       2.80310000       1.07810000
C        2.91370000       2.90890000       0.02910000
C        2.88250000       1.35750000      -0.07400000
C        1.80200000       2.95200000      -1.07900000
C        2.12240000       2.61250000      -2.44850000
C        2.37210000       2.35220000      -3.59620000
H        0.09650000       0.37440000      -1.10250000
H        1.12650000       3.67720000       1.20540000
H        2.02970000       2.35070000       2.03620000
H        3.79390000       3.55020000       0.06890000
H        3.21340000       0.80370000       0.80720000
H        3.25010000       0.91490000      -1.00030000
H        1.15460000       3.83320000      -1.03380000
H        2.59520000       2.12280000      -4.60890000
