17
Properties=species:S:1:pos:R:3 gdb_126676=T pbc="F F F"
C       -0.06240000       1.48470000      -0.06170000
C        0.02310000      -0.04150000       0.03080000
C        0.76270000      -0.48930000       1.27940000
O        0.79200000      -1.93080000       1.27870000
C        1.40210000      -2.50160000       2.30200000
N        1.96880000      -1.85120000       3.29400000
O        2.46100000      -2.89830000       4.09900000
C        2.12380000      -4.02910000       3.48270000
N        1.47340000      -3.87450000       2.37580000
H        0.93340000       1.93960000      -0.09470000
H       -0.59720000       1.78940000      -0.96530000
H       -0.59270000       1.90820000       0.79800000
H       -0.98120000      -0.47950000       0.03980000
H        0.53620000      -0.44830000      -0.84770000
H        1.79240000      -0.11320000       1.30070000
H        0.26540000      -0.14470000       2.19390000
H        2.41940000      -4.95460000       3.95560000
