22
Properties=species:S:1:pos:R:3 gdb_113225=T pbc="F F F"
C       -0.20370000       1.51780000       0.27850000
C       -0.28880000       0.01890000      -0.00300000
N        0.56790000      -0.32360000      -1.13290000
C        1.93320000      -0.75200000      -0.86460000
C        0.93600000      -1.71750000      -1.42610000
C        0.44050000      -2.87220000      -0.57740000
C        0.98870000      -1.97310000      -2.90830000
C        1.34470000      -3.26490000      -3.50990000
O       -0.01480000      -2.82400000      -3.47250000
H        0.81570000       1.80480000       0.55690000
H       -0.48490000       2.09160000      -0.60870000
H       -0.87000000       1.79460000       1.10150000
H       -0.03320000      -0.53670000       0.91450000
H       -1.31690000      -0.25430000      -0.26810000
H        2.71070000      -0.31720000      -1.48960000
H        2.22660000      -0.90960000       0.17390000
H        0.33920000      -2.59030000       0.47150000
H       -0.52610000      -3.22670000      -0.94480000
H        1.14180000      -3.71160000      -0.62000000
H        1.18000000      -1.06870000      -3.48610000
H        1.80330000      -3.28580000      -4.49780000
H        1.57520000      -4.12100000      -2.87880000
