21
Properties=species:S:1:pos:R:3 gdb_107242=T pbc="F F F"
C        0.18500000      -2.93210000       0.96450000
C        1.00340000      -1.67570000       0.64930000
C        1.26690000      -1.43610000      -0.81590000
C        0.37250000      -1.82800000      -1.96240000
C        1.77520000      -2.38460000      -1.89780000
C        2.82360000      -1.31340000      -2.31690000
O        2.14290000      -0.10420000      -2.69590000
C        2.34690000      -0.38230000      -1.29870000
C        3.00970000       0.66150000      -0.46130000
H       -0.82940000      -2.86500000       0.56000000
H        0.65550000      -3.82880000       0.54740000
H        0.10070000      -3.07310000       2.04610000
H        0.49120000      -0.79880000       1.07050000
H        1.96530000      -1.74030000       1.17660000
H       -0.40350000      -2.54550000      -1.71720000
H        0.11010000      -1.10990000      -2.72880000
H        1.99030000      -3.44280000      -1.82410000
H        3.80780000      -1.48380000      -2.73860000
H        2.31190000       1.47210000      -0.22110000
H        3.37140000       0.24030000       0.48180000
H        3.85800000       1.09140000      -1.00030000
