9
Properties=species:S:1:pos:R:3 gdb_774=T pbc="F F F"
O        0.01090000      -0.05220000       0.00300000
C       -0.01490000       1.15810000       0.00980000
N       -1.12420000       2.01770000       0.02880000
C       -0.67940000       3.31490000       0.03000000
N        0.61400000       3.38860000       0.01350000
N        1.01860000       2.07380000       0.00090000
H       -2.07330000       1.68830000       0.03970000
H       -1.33330000       4.17240000       0.04320000
H        1.99680000       1.84600000      -0.01280000
