20
Properties=species:S:1:pos:R:3 gdb_18369=T pbc="F F F"
O       -0.01540000       1.42220000       0.00100000
C        0.03050000       0.00790000       0.10620000
C        0.53140000      -0.52600000       1.46340000
C       -0.01690000      -1.96300000       1.50870000
C       -1.41010000      -1.86100000       0.86060000
C       -2.51850000      -1.19780000       1.73250000
C       -2.48090000       0.07040000       0.83350000
C       -1.37870000      -0.58240000      -0.04900000
H        0.87690000       1.75920000       0.12690000
H        0.66880000      -0.40880000      -0.69120000
H        1.62040000      -0.47440000       1.56680000
H        0.09710000       0.08540000       2.26350000
H        0.62380000      -2.62450000       0.91310000
H       -0.05180000      -2.37690000       2.52190000
H       -1.71570000      -2.79550000       0.38560000
H       -3.47240000      -1.73090000       1.72330000
H       -2.23560000      -1.03670000       2.77770000
H       -3.41220000       0.27140000       0.29960000
H       -2.16780000       0.99300000       1.32550000
H       -1.65250000      -0.70830000      -1.09790000
