16
Properties=species:S:1:pos:R:3 gdb_6272=T pbc="F F F"
C       -0.03270000       0.99940000      -0.42440000
C        0.23770000      -0.22560000       0.44690000
O        0.78420000       0.13650000       1.71050000
C       -1.00420000      -1.10630000       0.64470000
C       -1.44750000      -1.86530000      -0.58050000
O       -0.88770000      -1.85480000      -1.65380000
C       -2.70890000      -2.73380000      -0.44480000
O       -3.36700000      -2.80040000       0.55900000
H        0.87410000       1.60380000      -0.50990000
H       -0.35180000       0.70170000      -1.42620000
H       -0.82090000       1.62420000       0.01630000
H        1.01400000      -0.83430000      -0.02830000
H        0.19130000       0.77880000       2.11640000
H       -0.80720000      -1.84230000       1.43560000
H       -1.86030000      -0.52390000       1.01420000
H       -2.94920000      -3.28670000      -1.37770000
