12
Properties=species:S:1:pos:R:3 gdb_123279=T pbc="F F F"
C        0.07170000      -3.76460000      -0.01910000
C        0.04490000      -2.55670000      -0.01210000
C        0.01560000      -1.19950000      -0.00410000
C       -0.01660000       0.01300000       0.00310000
C       -0.02760000       1.41800000       0.01100000
C       -1.09650000       2.27410000       0.02990000
O       -0.68490000       3.54150000       0.03150000
N        0.71070000       3.57250000       0.01320000
C        1.08570000       2.32270000       0.00130000
H        0.09470000      -4.82610000      -0.02530000
H       -2.16260000       2.11130000       0.04310000
H        2.13800000       2.07880000      -0.01390000
