18
Properties=species:S:1:pos:R:3 gdb_74612=T pbc="F F F"
C        0.04350000       1.52350000       0.15280000
C       -0.02490000       0.03690000      -0.01910000
N       -1.12360000      -0.60350000       0.00740000
C       -1.06980000      -2.03740000      -0.02000000
C       -0.60300000      -2.86290000      -1.20200000
C        0.45420000      -2.09050000      -1.98910000
C        1.22370000      -1.85510000      -0.64900000
O        1.21960000      -0.49810000      -0.19230000
C        0.23640000      -2.76840000       0.07930000
H        0.68660000       1.77190000       1.00370000
H        0.48510000       1.99370000      -0.73170000
H       -0.95760000       1.91820000       0.32150000
H       -1.89820000      -2.49020000       0.51580000
H       -1.18070000      -3.70480000      -1.56310000
H        1.02380000      -2.72420000      -2.67300000
H        0.12800000      -1.19110000      -2.51930000
H        2.26840000      -2.16130000      -0.65030000
H        0.47310000      -3.50210000       0.83810000
