18
Properties=species:S:1:pos:R:3 gdb_71228=T pbc="F F F"
O       -0.04370000       1.43220000      -0.04890000
C        0.02220000       0.03570000       0.01420000
C        0.26310000      -0.71080000       1.37220000
N       -0.74230000      -1.73070000       0.96820000
C       -0.39320000      -2.49110000      -0.33380000
C       -1.62810000      -1.79490000      -0.99280000
C       -1.37290000      -0.70030000       0.03690000
C        0.81960000      -1.95450000      -1.04650000
C        0.96650000      -0.63150000      -0.95520000
H        0.84910000       1.78140000      -0.14350000
H        1.27240000      -1.06480000       1.59920000
H       -0.15230000      -0.15440000       2.21910000
H       -0.40290000      -3.57400000      -0.20820000
H       -1.57200000      -1.57200000      -2.05880000
H       -2.55800000      -2.31480000      -0.75140000
H       -2.18470000      -0.08120000       0.42720000
H        1.45750000      -2.60490000      -1.63500000
H        1.74710000      -0.05590000      -1.44470000
