16
Properties=species:S:1:pos:R:3 gdb_19140=T pbc="F F F"
O       -0.20380000       0.28890000       0.72810000
C        0.11840000       1.05420000      -0.15130000
C        1.30550000       1.95380000      -0.07430000
C        1.81970000       2.27620000       1.32230000
C        2.56660000       1.29290000       0.49390000
C        1.47200000       2.98630000      -1.14590000
O        1.01500000       2.65210000      -2.45940000
C        0.34590000       3.70470000      -1.75670000
H       -0.44820000       1.10740000      -1.10200000
H        2.24370000       3.26310000       1.47270000
H        1.21380000       1.89410000       2.13560000
H        2.47530000       0.24320000       0.74700000
H        3.51090000       1.58740000       0.04870000
H        2.43840000       3.49440000      -1.12910000
H       -0.67180000       3.48150000      -1.43800000
H        0.49440000       4.70430000      -2.16200000
