14
Properties=species:S:1:pos:R:3 gdb_5106=T pbc="F F F"
C       -0.11290000       1.44920000       0.02670000
N       -0.00120000       0.00770000       0.04280000
C        0.00650000      -0.76230000      -1.10680000
O       -0.01700000      -0.39740000      -2.25400000
O        0.04090000      -2.06800000      -0.69480000
C        0.06770000      -2.09020000       0.69580000
C        0.02820000      -0.83100000       1.16020000
N       -0.08690000      -0.29360000       2.44200000
H        0.82160000       1.93390000       0.33330000
H       -0.33480000       1.74050000      -1.00110000
H       -0.91810000       1.77710000       0.68970000
H        0.09320000      -3.05290000       1.17210000
H       -0.12630000      -1.01740000       3.14820000
H        0.66180000       0.35240000       2.67140000
