15
Properties=species:S:1:pos:R:3 gdb_33446=T pbc="F F F"
C       -0.01630000      -1.19610000      -0.00890000
C        0.00020000       0.00470000       0.03450000
C        0.01160000       1.44190000       0.07480000
C       -1.07640000       2.06940000      -0.65050000
N       -1.96130000       2.56430000      -1.20440000
C        0.52710000       2.21340000       1.25910000
C        1.62410000       1.44980000       1.99040000
C        2.36480000       1.43070000       0.62580000
N        1.27980000       2.25010000      -0.03640000
H       -0.04170000      -2.25760000      -0.05110000
H       -0.03480000       3.06680000       1.62520000
H        2.12740000       2.05840000       2.74260000
H        1.33810000       0.49190000       2.42940000
H        3.28670000       2.01280000       0.61350000
H        2.53440000       0.46070000       0.15550000
