19
Properties=species:S:1:pos:R:3 gdb_120074=T pbc="F F F"
C        0.01810000       1.51870000       0.06200000
C        0.26110000       0.02230000      -0.03420000
O        0.35290000      -0.50330000       1.27880000
C        0.53630000      -1.89180000       1.32110000
C        1.97550000      -2.44130000       1.17010000
C        2.33430000      -2.03220000       2.63680000
O        2.82990000      -3.35210000       3.01020000
C        1.67530000      -3.61110000       2.15760000
C        0.82500000      -2.43250000       2.72460000
H        0.84080000       2.00780000       0.59120000
H       -0.06190000       1.95740000      -0.93700000
H       -0.90800000       1.72200000       0.60720000
H       -0.56210000      -0.46990000      -0.57880000
H        1.18720000      -0.18380000      -0.59470000
H       -0.24060000      -2.41180000       0.74070000
H        2.64900000      -2.46960000       0.31450000
H        2.84760000      -1.15100000       3.01480000
H        1.39160000      -4.64260000       1.95440000
H        0.19670000      -2.43960000       3.61390000
