14
Properties=species:S:1:pos:R:3 gdb_32510=T pbc="F F F"
O       -0.04090000       1.39800000       0.00780000
C        0.00940000      -0.01710000       0.00190000
C       -1.39420000      -0.52800000       0.01200000
C       -2.53690000       0.20000000       0.02380000
O       -3.63240000      -0.61860000       0.03050000
C       -3.18810000      -1.88600000       0.02300000
C       -1.82040000      -1.90900000       0.01100000
C       -0.99010000      -3.05570000       0.00040000
N       -0.28550000      -3.97510000      -0.00870000
H        0.86080000       1.73110000       0.00140000
H        0.53450000      -0.40180000      -0.88750000
H        0.54990000      -0.40880000       0.87900000
H       -2.73050000       1.25760000       0.02880000
H       -3.93080000      -2.66600000       0.02710000
