11
Properties=species:S:1:pos:R:3 gdb_21915=T pbc="F F F"
O       -0.07630000       1.30660000       0.01060000
C       -0.00010000      -0.02490000       0.00280000
N        1.17970000      -0.55480000      -0.00760000
O        1.25660000      -1.94400000      -0.01550000
C        0.13860000      -2.67560000      -0.01210000
C       -1.11400000      -2.17880000      -0.00140000
C       -1.31270000      -0.74710000       0.00740000
O       -2.37400000      -0.15440000       0.01750000
H        0.82810000       1.65550000       0.00670000
H        0.38490000      -3.73200000      -0.01930000
H       -1.97100000      -2.83950000       0.00060000
