19
Properties=species:S:1:pos:R:3 gdb_102432=T pbc="F F F"
C        0.04010000       1.04750000       0.97980000
C        0.02710000      -0.34580000       0.34910000
C        0.50390000      -0.33290000      -1.11350000
O        1.83980000       0.13190000      -1.12510000
C        2.34980000       0.40610000      -2.41550000
C        0.37140000      -1.65960000      -1.72950000
C        0.28090000      -2.75400000      -2.23510000
C        0.12960000      -4.05740000      -2.82800000
O        1.00290000      -4.64630000      -3.42270000
H        1.04370000       1.47690000       0.94780000
H       -0.63740000       1.72790000       0.45170000
H       -0.28260000       0.99970000       2.02370000
H        0.67870000      -1.02650000       0.90700000
H       -0.98070000      -0.77330000       0.37290000
H       -0.13600000       0.36230000      -1.68810000
H        2.37990000      -0.49550000      -3.04160000
H        1.75040000       1.17310000      -2.92970000
H        3.36620000       0.78110000      -2.27970000
H       -0.88010000      -4.49750000      -2.69700000
