21
Properties=species:S:1:pos:R:3 gdb_89309=T pbc="F F F"
C       -0.05180000       1.49840000       0.03960000
C        0.02110000      -0.01000000       0.05290000
C        0.97110000      -0.81900000      -0.88530000
C        0.71820000      -1.93990000       0.14810000
O        1.61580000      -3.00570000       0.19460000
C        0.66200000      -0.81300000       1.22690000
C       -0.77670000      -2.24510000      -0.07880000
C       -1.30420000      -0.77620000      -0.14930000
O       -2.21020000      -0.42330000       0.88410000
H        0.93090000       1.94700000       0.21640000
H       -0.41850000       1.86550000      -0.92680000
H       -0.73750000       1.85670000       0.81320000
H        0.66340000      -0.99240000      -1.92170000
H        1.99760000      -0.44760000      -0.84920000
H        1.31510000      -3.62560000       0.86780000
H        1.65930000      -0.44710000       1.48110000
H        0.05870000      -0.96950000       2.12410000
H       -0.94420000      -2.81720000      -0.99630000
H       -1.23010000      -2.78170000       0.76220000
H       -1.74090000      -0.54610000      -1.13240000
H       -3.02930000      -0.90780000       0.74490000
