17
Properties=species:S:1:pos:R:3 gdb_48615=T pbc="F F F"
O        0.00720000      -0.12710000      -0.03990000
C        0.05910000       1.05530000       0.19470000
C        1.30140000       1.87110000       0.07490000
C        2.68900000       1.28570000      -0.33380000
C        3.01120000       2.76980000      -0.67150000
C        1.52250000       2.90140000      -1.10510000
C        2.99840000       3.42930000       0.72000000
C        1.70220000       2.77780000       1.24690000
O        1.13990000       2.94130000       2.29410000
H       -0.84320000       1.62210000       0.51170000
H        3.27960000       0.78680000       0.43860000
H        2.60000000       0.64740000      -1.21400000
H        3.81990000       3.03930000      -1.34880000
H        1.31460000       2.43930000      -2.07200000
H        1.03760000       3.87870000      -1.03250000
H        3.85440000       3.16260000       1.34740000
H        2.91150000       4.52000000       0.70300000
