16
Properties=species:S:1:pos:R:3 gdb_28509=T pbc="F F F"
N        0.01320000       1.40140000      -0.10610000
C       -0.01020000       0.00280000      -0.04880000
C       -1.17610000      -0.75050000      -0.10600000
C       -1.09560000      -2.14460000      -0.06330000
O       -2.19340000      -2.95690000      -0.11350000
C        0.15790000      -2.73410000       0.04750000
N        1.28650000      -2.01630000       0.07990000
C        1.21630000      -0.69550000       0.02590000
N        2.40880000       0.04920000       0.10880000
H        0.74450000       1.79310000       0.47690000
H       -0.87730000       1.83530000       0.09750000
H       -2.14290000      -0.25480000      -0.16600000
H       -2.98430000      -2.41460000      -0.19270000
H        0.24580000      -3.81480000       0.09900000
H        3.20590000      -0.57550000       0.07900000
H        2.48360000       0.74680000      -0.62450000
