22
Properties=species:S:1:pos:R:3 gdb_11670=T pbc="F F F"
C        0.03400000       1.83870000       0.75710000
C       -0.01340000       0.31540000       0.59060000
C        0.81470000      -0.42980000       1.60960000
C        2.35960000      -0.34550000       1.83290000
C        1.84650000      -1.37450000       2.87760000
C        0.68920000      -0.37900000       3.16940000
C        0.98330000      -1.98760000       1.73060000
C       -0.19700000      -2.90770000       2.00660000
H        1.05730000       2.21600000       0.65930000
H       -0.57980000       2.33790000       0.00120000
H       -0.33770000       2.14030000       1.74200000
H       -1.05440000      -0.02870000       0.65730000
H        0.33340000       0.04300000      -0.41540000
H        2.99190000      -0.73270000       1.02770000
H        2.74720000       0.59730000       2.22900000
H        2.44660000      -1.91600000       3.61090000
H        0.97560000       0.56300000       3.64600000
H       -0.22420000      -0.77250000       3.61870000
H        1.59030000      -2.40910000       0.91890000
H       -0.84660000      -2.55560000       2.81200000
H       -0.81580000      -3.01920000       1.10890000
H        0.15550000      -3.90800000       2.28220000
