16
Properties=species:S:1:pos:R:3 gdb_54879=T pbc="F F F"
C       -0.91240000       0.98860000       0.18830000
C        0.30950000       0.10890000       0.05770000
O        1.17520000       0.04020000       0.89490000
C        0.39710000      -0.71090000      -1.24760000
C        1.66670000      -1.49360000      -1.43700000
C        1.35650000      -2.78220000      -1.59170000
N       -0.03390000      -2.98100000      -1.53430000
C       -0.70920000      -1.80190000      -1.31470000
O       -1.90750000      -1.66940000      -1.20420000
H       -0.85710000       1.80050000      -0.54720000
H       -1.81250000       0.41030000      -0.04280000
H       -0.95930000       1.41300000       1.19170000
H        0.19480000      -0.01910000      -2.07750000
H        2.65810000      -1.07190000      -1.40860000
H        2.00440000      -3.63290000      -1.74530000
H       -0.50690000      -3.86720000      -1.59630000
