22
Properties=species:S:1:pos:R:3 gdb_112978=T pbc="F F F"
C        0.28250000       1.29200000       0.18590000
O       -0.22980000       0.04150000      -0.21300000
C        0.50190000      -0.55120000      -1.25460000
C        1.80270000      -1.29350000      -0.83070000
N        1.04940000      -2.56440000      -0.84640000
C       -0.06190000      -1.94420000      -1.59880000
C        1.67170000      -3.73670000      -1.35880000
C        2.43500000      -4.61060000      -0.39700000
C        1.10930000      -5.07360000      -0.95020000
H        1.30720000       1.21580000       0.57950000
H        0.28800000       2.01290000      -0.64750000
H       -0.36840000       1.67160000       0.97720000
H        0.61330000       0.15080000      -2.09200000
H        2.58730000      -1.23390000      -1.60180000
H        2.23560000      -1.02820000       0.14010000
H       -1.06160000      -2.15810000      -1.20840000
H       -0.03840000      -2.15320000      -2.67960000
H        2.07310000      -3.66970000      -2.37780000
H        3.34100000      -5.09130000      -0.74840000
H        2.45680000      -4.29040000       0.63800000
H        0.25820000      -5.06000000      -0.27960000
H        1.10300000      -5.87270000      -1.68310000
