12
Properties=species:S:1:pos:R:3 gdb_129193=T pbc="F F F"
N       -0.10810000       1.34190000       0.01050000
C       -0.01480000       0.06940000       0.00340000
N        1.15790000      -0.69750000      -0.00770000
N        1.22790000      -2.02990000      -0.01500000
C        0.08920000      -2.66090000      -0.01130000
N       -1.16940000      -2.07600000      -0.00070000
C       -1.20400000      -0.78970000       0.00610000
C        0.13970000      -4.09450000      -0.01930000
N        0.16360000      -5.25040000      -0.02560000
H        0.80120000       1.80680000       0.00740000
H        2.05810000      -0.23700000      -0.01080000
H       -2.16540000      -0.28160000       0.01460000
