20
Properties=species:S:1:pos:R:3 gdb_7494=T pbc="F F F"
C       -0.04750000       1.56650000       0.07630000
C       -0.00270000       0.03640000       0.09930000
C       -1.38810000      -0.59570000      -0.07580000
C       -1.38020000      -2.12000000      -0.08000000
O       -0.55950000      -2.53750000      -1.14420000
C       -1.15860000      -2.77930000       1.31030000
O       -2.56000000      -3.09380000       1.41830000
C       -2.78910000      -2.76030000       0.03540000
H        0.95130000       1.99570000       0.20240000
H       -0.45030000       1.93580000      -0.87340000
H       -0.68250000       1.95960000       0.87830000
H        0.65600000      -0.33220000      -0.69310000
H        0.43730000      -0.30100000       1.04710000
H       -2.06050000      -0.25980000       0.72330000
H       -1.82860000      -0.25820000      -1.02320000
H       -0.52660000      -3.49990000      -1.14770000
H       -0.53180000      -3.68350000       1.26610000
H       -0.81100000      -2.14400000       2.13240000
H       -3.65850000      -2.10640000      -0.09810000
H       -2.91070000      -3.65520000      -0.59420000
