16
Properties=species:S:1:pos:R:3 gdb_29146=T pbc="F F F"
C       -0.03080000       1.48080000      -0.00710000
C       -0.00300000      -0.01420000      -0.01790000
N       -0.01930000      -0.65200000      -1.14900000
C        0.00580000      -2.01970000      -1.17210000
O       -0.01390000      -2.60390000      -2.39850000
C        0.04800000      -2.75390000      -0.03730000
N        0.06560000      -2.08020000       1.16830000
C        0.04260000      -0.69750000       1.29100000
N        0.05710000      -0.01690000       2.38450000
H        0.84780000       1.87230000       0.51610000
H       -0.06400000       1.86170000      -1.02830000
H       -0.89590000       1.83950000       0.56050000
H       -0.04350000      -1.87530000      -3.03100000
H        0.06900000      -3.83350000      -0.01150000
H        0.09690000      -2.61930000       2.01970000
H        0.08900000      -0.62030000       3.20820000
