21
Properties=species:S:1:pos:R:3 gdb_62576=T pbc="F F F"
C        0.03220000       1.41750000       0.02080000
C       -0.07610000      -0.10370000      -0.05360000
C       -1.42750000      -0.52430000      -0.61320000
C        1.26210000      -0.76020000      -0.34720000
C        0.68440000      -0.78840000       1.06910000
C        0.64540000      -2.32060000       1.24980000
C        2.06220000      -2.74460000       0.76590000
C        1.38180000      -2.28460000      -0.55590000
O        0.13420000      -2.81900000      -0.02200000
H        0.99730000       1.74350000       0.42080000
H       -0.08700000       1.86130000      -0.97420000
H       -0.75470000       1.82870000       0.66330000
H       -1.56210000      -0.09180000      -1.61230000
H       -1.54160000      -1.60110000      -0.68020000
H       -2.22830000      -0.12280000       0.02010000
H        2.11020000      -0.14220000      -0.62340000
H        1.08900000      -0.19210000       1.88040000
H        0.15280000      -2.74730000       2.12350000
H        2.93410000      -2.19620000       1.13240000
H        2.21000000      -3.82560000       0.80460000
H        1.64650000      -2.67440000      -1.53880000
