19
Properties=species:S:1:pos:R:3 gdb_101153=T pbc="F F F"
O        0.74410000       0.18360000       0.38030000
C       -0.24120000       0.24080000      -0.61530000
C       -1.56290000      -0.41200000      -0.17880000
O       -2.58100000      -0.26960000      -1.16830000
C       -1.37850000      -1.87100000       0.18170000
N       -0.25110000      -2.40600000       0.48860000
C       -0.53310000      -3.81570000       0.81610000
C       -1.98630000      -4.06900000       0.32440000
N       -2.48380000      -2.69180000       0.23080000
H        0.83550000      -0.76350000       0.59220000
H       -0.43680000       1.29450000      -0.84000000
H        0.08560000      -0.24380000      -1.55540000
H       -1.93970000       0.11140000       0.70770000
H       -2.19030000      -0.49760000      -2.02030000
H        0.19740000      -4.47900000       0.34570000
H       -0.45230000      -3.95650000       1.90170000
H       -2.00280000      -4.56880000      -0.65430000
H       -2.57800000      -4.66520000       1.02350000
H       -3.25770000      -2.45800000      -0.37300000
