20
Properties=species:S:1:pos:R:3 gdb_121076=T pbc="F F F"
O       -0.05850000       1.45410000      -0.09710000
C        0.03980000       0.04450000       0.02660000
C       -1.37230000      -0.52530000      -0.04900000
C       -1.42570000      -2.05090000       0.02740000
C       -0.92820000      -2.64780000       1.37060000
N       -1.65990000      -3.89780000       1.45380000
C       -2.79590000      -3.95390000       0.68760000
O       -3.60290000      -4.85650000       0.67780000
C       -2.83570000      -2.65180000      -0.11840000
H        0.82690000       1.82530000      -0.04310000
H        0.65610000      -0.38640000      -0.78010000
H        0.51350000      -0.23640000       0.98160000
H       -1.97130000      -0.08940000       0.76060000
H       -1.82500000      -0.18770000      -0.98840000
H       -0.79640000      -2.47040000      -0.76800000
H        0.15320000      -2.81810000       1.37820000
H       -1.16640000      -1.97560000       2.20990000
H       -1.50160000      -4.58850000       2.17030000
H       -3.59740000      -2.00260000       0.33230000
H       -3.13860000      -2.84220000      -1.14940000
