11
Properties=species:S:1:pos:R:3 gdb_20335=T pbc="F F F"
C       -0.02250000      -1.22100000      -0.00490000
C        0.00040000      -0.02180000       0.00200000
C        0.00990000       1.43390000       0.01020000
N        1.36520000       1.99070000       0.00000000
N        2.06750000       2.25000000       1.09210000
N        3.20490000       2.69840000       0.66060000
N        3.19070000       2.70830000      -0.68890000
N        2.04440000       2.26590000      -1.10280000
H       -0.03850000      -2.28370000      -0.01130000
H       -0.49620000       1.83870000      -0.87010000
H       -0.47900000       1.82870000       0.90460000
