23
Properties=species:S:1:pos:R:3 gdb_103509=T pbc="F F F"
C        0.12720000       1.60570000       0.06990000
C        0.02230000       0.07580000       0.07210000
C       -1.41070000      -0.50730000      -0.00090000
C       -2.24500000      -0.05770000       1.21740000
C       -2.14890000      -0.15580000      -1.28810000
C       -2.64280000      -1.22700000      -1.91340000
C       -2.24870000      -2.49340000      -1.23240000
C       -0.75450000      -2.75880000      -1.22020000
C       -1.39570000      -2.04760000      -0.05700000
H        1.17670000       1.91520000       0.10370000
H       -0.31190000       2.04170000      -0.83340000
H       -0.37240000       2.05490000       0.93360000
H        0.60310000      -0.31940000      -0.76830000
H        0.49890000      -0.31380000       0.98140000
H       -2.42980000       1.02040000       1.20620000
H       -3.21660000      -0.56050000       1.21910000
H       -1.73010000      -0.30240000       2.15450000
H       -2.25750000       0.86830000      -1.62760000
H       -3.22460000      -1.20710000      -2.82860000
H       -2.93570000      -3.33090000      -1.17970000
H       -0.42680000      -3.77850000      -1.04270000
H       -0.14130000      -2.20420000      -1.92250000
H       -1.43800000      -2.57990000       0.88740000
