23
Properties=species:S:1:pos:R:3 gdb_94934=T pbc="F F F"
C        0.04780000       1.60090000      -0.16080000
C        0.07250000       0.08930000      -0.02180000
C       -1.25820000      -0.53920000      -0.41250000
C        1.28980000      -0.75400000      -0.33830000
C        2.67540000      -0.11720000      -0.42370000
C        2.92270000       0.58370000       0.93570000
C        1.85850000       0.03650000       1.92970000
O        1.27240000       1.04470000       2.75020000
C        0.79440000      -0.64630000       1.09260000
H        1.00960000       2.07460000       0.02680000
H       -0.26690000       1.87700000      -1.17480000
H       -0.67070000       2.03700000       0.54100000
H       -1.51320000      -0.30210000      -1.45230000
H       -1.23600000      -1.62920000      -0.31500000
H       -2.06960000      -0.16390000       0.22210000
H        1.12770000      -1.66060000      -0.91370000
H        3.41470000      -0.90880000      -0.58600000
H        2.77410000       0.57730000      -1.26580000
H        3.93950000       0.40790000       1.30030000
H        2.80080000       1.66740000       0.86250000
H        2.31920000      -0.73060000       2.57200000
H        1.96180000       1.39880000       3.32110000
H        0.25800000      -1.46220000       1.56600000
