19
Properties=species:S:1:pos:R:3 gdb_106051=T pbc="F F F"
C        0.14820000       1.29310000      -0.15400000
O       -0.15800000      -0.05150000       0.19920000
C        0.59120000      -0.52010000       1.24790000
C        2.04850000      -0.99420000       1.06970000
C        2.69840000      -1.00590000       2.45140000
C        1.31410000      -1.48380000       2.96900000
C        0.95880000      -1.95740000       1.50500000
C        0.36900000      -0.26340000       2.72470000
O        0.73070000       1.01550000       3.20100000
H        1.19180000       1.38910000      -0.48270000
H       -0.51630000       1.56160000      -0.97820000
H       -0.01730000       1.97410000       0.68900000
H        2.51160000      -0.93340000       0.09300000
H        3.45260000      -1.79330000       2.53610000
H        3.07990000      -0.06530000       2.86000000
H        1.21660000      -2.08000000       3.87380000
H        0.57520000      -2.87460000       1.08570000
H       -0.66500000      -0.51880000       2.99480000
H        0.46390000       1.08660000       4.12310000
