17
Properties=species:S:1:pos:R:3 gdb_124753=T pbc="F F F"
C        0.13630000       1.32950000       0.99290000
C       -0.16130000       0.47700000      -0.23600000
O        0.85830000      -0.51910000      -0.45610000
C       -1.51160000      -0.17910000      -0.18170000
C       -1.93690000      -1.27820000      -0.91200000
N       -1.29870000      -2.02250000      -1.88910000
N       -3.21840000      -1.45120000      -0.51640000
N       -3.58450000      -0.51930000       0.41390000
N       -2.54890000       0.23650000       0.60050000
H        1.12410000       1.78720000       0.89670000
H       -0.61820000       2.11090000       1.10850000
H        0.11220000       0.71860000       1.90220000
H       -0.08820000       1.10730000      -1.13170000
H        0.91090000      -1.04490000       0.35120000
H       -0.29630000      -1.87490000      -1.83440000
H       -1.52650000      -3.00800000      -1.89260000
H       -3.89200000      -2.13320000      -0.82470000
