11
Properties=species:S:1:pos:R:3 gdb_20610=T pbc="F F F"
C        0.06240000       1.51910000       0.05520000
C       -0.01740000       0.03820000       0.07620000
C       -1.07070000      -0.83310000      -0.05940000
N       -0.55560000      -2.11130000       0.04460000
N        0.67640000      -2.08030000       0.22510000
O        1.08040000      -0.67430000       0.25340000
C       -2.43960000      -0.54590000      -0.26720000
N       -3.55110000      -0.27130000      -0.43670000
H        0.72660000       1.85310000      -0.74780000
H       -0.92890000       1.94740000      -0.10000000
H        0.46960000       1.89170000       1.00010000
