18
Properties=species:S:1:pos:R:3 gdb_11463=T pbc="F F F"
C        0.20900000       1.55110000       0.27020000
C        0.09080000       0.06500000      -0.05080000
C        0.98610000      -0.41340000      -1.20500000
O        2.18640000      -0.80100000      -0.54800000
C        1.80530000      -1.30650000       0.71840000
C        2.90070000      -0.93950000       1.71900000
O        3.27240000       0.41710000       1.62580000
O        0.55850000      -0.72380000       1.04840000
H        1.24980000       1.81180000       0.47800000
H       -0.16280000       2.16050000      -0.56060000
H       -0.37910000       1.78820000       1.16090000
H       -0.95690000      -0.20190000      -0.23130000
H        0.53930000      -1.27010000      -1.73000000
H        1.22780000       0.36640000      -1.93070000
H        1.67980000      -2.40330000       0.67570000
H        2.52360000      -1.11420000       2.73060000
H        3.75770000      -1.61180000       1.55180000
H        3.44000000       0.57350000       0.68830000
