17
Properties=species:S:1:pos:R:3 gdb_31592=T pbc="F F F"
N        0.26750000       1.14710000       0.66980000
C       -0.01100000      -0.14700000       0.18270000
C       -1.16810000      -0.74840000      -0.26770000
O       -2.35720000      -0.07630000      -0.38320000
C       -0.87810000      -2.10880000      -0.55870000
C        0.46550000      -2.30450000      -0.29390000
C        1.33570000      -3.50630000      -0.44190000
O        2.14730000      -3.74490000       0.70930000
N        0.97410000      -1.11240000       0.14890000
H       -0.53270000       1.50850000       1.17820000
H        0.45650000       1.80530000      -0.08200000
H       -3.04700000      -0.71360000      -0.58680000
H       -1.56050000      -2.85230000      -0.94530000
H        0.70600000      -4.37320000      -0.68950000
H        2.05600000      -3.38740000      -1.26130000
H        1.55200000      -3.80750000       1.46460000
H        1.89960000      -0.98480000       0.52230000
