21
Properties=species:S:1:pos:R:3 gdb_102812=T pbc="F F F"
C        0.31750000       0.89560000      -1.08980000
O       -0.10820000       0.35310000       0.14230000
C       -1.27910000      -0.43720000       0.08850000
C       -1.03310000      -1.83110000      -0.52160000
C       -1.04560000      -1.87690000      -2.02840000
O       -0.22850000      -2.43150000      -2.71850000
C       -1.79460000      -0.55280000       1.54030000
C       -2.05060000       0.81000000       2.17520000
O       -2.95040000      -1.38350000       1.59010000
H        1.16230000       1.55380000      -0.87320000
H        0.65020000       0.12260000      -1.79500000
H       -0.47890000       1.48710000      -1.56740000
H       -2.05580000       0.08400000      -0.50490000
H       -0.09740000      -2.25450000      -0.14590000
H       -1.86600000      -2.46370000      -0.18350000
H       -1.92100000      -1.35660000      -2.48920000
H       -1.03270000      -1.08780000       2.11970000
H       -2.81960000       1.35890000       1.61480000
H       -2.39970000       0.68590000       3.20370000
H       -1.14130000       1.41290000       2.17310000
H       -3.70280000      -0.85890000       1.29410000
