16
Properties=species:S:1:pos:R:3 gdb_105139=T pbc="F F F"
N       -0.17960000       1.46390000       0.13520000
C        0.32290000       0.13080000      -0.18290000
C        0.93530000      -0.47520000       1.06680000
N       -0.03640000      -0.97900000       2.05550000
C        0.83620000      -1.95340000       1.37220000
C        0.23550000      -2.88750000       0.46120000
C       -0.23050000      -3.69830000      -0.29360000
C        2.11990000       0.18540000       1.57380000
N        3.07200000       0.68850000       1.99530000
H       -0.47550000       1.93880000      -0.71060000
H       -0.99770000       1.38090000       0.73150000
H       -0.43190000      -0.57600000      -0.55510000
H        1.09940000       0.22060000      -0.95000000
H        0.29770000      -0.82120000       3.00350000
H        1.66960000      -2.35470000       1.94430000
H       -0.65040000      -4.41070000      -0.96040000
