21
Properties=species:S:1:pos:R:3 gdb_92265=T pbc="F F F"
C       -0.33420000       1.40880000       0.01420000
C        0.06240000      -0.06320000      -0.02530000
C       -1.11710000      -0.99610000      -0.16900000
C       -1.22070000      -1.86790000       0.83610000
C       -0.12200000      -1.70880000       1.86320000
C        0.83650000      -0.71320000       1.18190000
C        1.84880000      -1.32880000       0.17300000
C        1.26710000      -0.43610000      -0.95540000
O        1.01720000      -0.99750000      -2.21970000
H        0.53750000       2.04600000       0.19990000
H       -0.77450000       1.71930000      -0.94060000
H       -1.07070000       1.60510000       0.80100000
H       -1.81600000      -0.91500000      -0.99610000
H       -2.01180000      -2.60400000       0.93910000
H       -0.52520000      -1.33170000       2.81330000
H        0.37540000      -2.65900000       2.09850000
H        1.29270000      -0.00230000       1.87290000
H        2.91210000      -1.20930000       0.39290000
H        1.65290000      -2.39090000      -0.00920000
H        1.89370000       0.44130000      -1.14450000
H        0.45400000      -1.76830000      -2.08410000
