21
Properties=species:S:1:pos:R:3 gdb_78498=T pbc="F F F"
C       -0.01900000       1.61340000       0.05970000
C        0.09140000       0.09360000       0.03050000
C        0.79530000      -0.62490000      -1.12200000
C        2.31140000      -0.76300000      -0.75380000
C        3.34990000      -1.00580000      -1.80760000
C        2.49150000      -0.10200000       0.61350000
C        1.08670000      -0.65810000       0.97100000
C        1.29400000      -1.71910000      -0.20870000
O        1.27770000      -3.08850000      -0.27700000
H        0.94200000       2.10120000      -0.12390000
H       -0.71430000       1.96270000      -0.71190000
H       -0.39720000       1.96280000       1.02740000
H       -0.90550000      -0.34560000       0.16310000
H        0.49060000      -0.70580000      -2.15910000
H        3.66740000      -0.07010000      -2.28250000
H        4.24000000      -1.48310000      -1.38220000
H        2.96700000      -1.66560000      -2.59300000
H        3.27550000      -0.60940000       1.18440000
H        2.64670000       0.98090000       0.67290000
H        0.81790000      -0.87300000       2.00390000
H        0.36130000      -3.38650000      -0.30030000
