20
Properties=species:S:1:pos:R:3 gdb_87866=T pbc="F F F"
O       -0.69750000       1.35080000      -0.56740000
C       -0.37400000       0.00760000      -0.36000000
C       -0.13840000      -0.48920000       1.04580000
C       -1.40520000      -0.85940000       0.30430000
C       -2.76490000      -0.26480000       0.68680000
C       -3.75360000      -1.06860000      -0.14000000
N       -3.38490000      -1.15240000      -1.57100000
C       -3.08180000      -2.28290000      -0.66640000
C       -1.63770000      -2.29000000      -0.19750000
H        0.07940000       1.87830000      -0.35620000
H        0.20510000      -0.44830000      -1.16380000
H        0.61140000      -1.25620000       1.21520000
H       -0.22900000       0.24310000       1.84260000
H       -2.97860000      -0.41770000       1.75250000
H       -2.80260000       0.80720000       0.47990000
H       -4.80510000      -1.06850000       0.12940000
H       -4.21630000      -1.37680000      -2.11240000
H       -3.61080000      -3.22120000      -0.80060000
H       -0.93380000      -2.57270000      -0.98790000
H       -1.52570000      -3.01360000       0.62070000
