22
Properties=species:S:1:pos:R:3 gdb_13211=T pbc="F F F"
C       -0.13610000       1.53700000      -0.05570000
C        0.01200000       0.01600000       0.04770000
C        0.74460000      -0.48470000       1.31010000
C       -0.00160000      -0.11640000       2.59960000
C        0.98390000      -1.99090000       1.18280000
C        1.63380000      -2.79280000       2.33530000
C        0.34820000      -3.63990000       2.27870000
O       -0.23750000      -2.77070000       1.28860000
H        0.83810000       2.03590000       0.00720000
H       -0.59000000       1.81770000      -1.01140000
H       -0.76980000       1.94520000       0.73720000
H       -0.97590000      -0.45940000       0.00710000
H        0.55820000      -0.34500000      -0.83350000
H        1.74260000      -0.01870000       1.33180000
H       -0.98260000      -0.60010000       2.62150000
H        0.54850000      -0.42750000       3.49300000
H       -0.14930000       0.96360000       2.67690000
H        1.47000000      -2.18830000       0.21540000
H        2.56260000      -3.30830000       2.08640000
H        1.77280000      -2.23640000       3.26320000
H        0.48160000      -4.66040000       1.89660000
H       -0.25360000      -3.68150000       3.19420000
