19
Properties=species:S:1:pos:R:3 gdb_57709=T pbc="F F F"
C       -0.02580000       1.55220000       0.01330000
C       -0.02390000       0.00740000       0.03610000
C        0.74450000      -0.52190000       1.26730000
C       -1.47070000      -0.53400000       0.02900000
O       -2.11070000      -0.05860000       1.20810000
C       -3.39390000      -0.43720000       1.39150000
N       -4.01930000      -0.04770000       2.41410000
C        0.61720000      -0.49560000      -1.18970000
N        1.11270000      -0.89500000      -2.15450000
H        0.99740000       1.93530000       0.00900000
H       -0.53730000       1.93210000      -0.87540000
H       -0.54150000       1.92520000       0.90020000
H        0.24270000      -0.18650000       2.17700000
H        0.78000000      -1.61480000       1.26920000
H        1.77040000      -0.14630000       1.26770000
H       -1.99940000      -0.17820000      -0.86430000
H       -1.45990000      -1.63120000       0.01430000
H       -3.78120000      -1.07970000       0.58910000
H       -4.96760000      -0.41740000       2.40490000
