20
Properties=species:S:1:pos:R:3 gdb_59080=T pbc="F F F"
C        0.61960000       0.17760000      -1.26020000
N       -0.04890000       0.03960000       0.02900000
C        0.05370000       1.25690000       0.82800000
C       -1.39130000      -0.42150000      -0.12500000
C       -1.61770000      -1.91400000      -0.23300000
N       -0.56440000      -2.88450000      -0.16510000
C       -2.03540000      -1.18780000       1.03920000
C       -1.30050000      -1.40480000       2.25120000
N       -0.72220000      -1.57910000       3.23850000
H        1.67060000       0.43630000      -1.10100000
H        0.57730000      -0.77020000      -1.80300000
H        0.16820000       0.96100000      -1.89640000
H       -0.44530000       2.12160000       0.35370000
H       -0.38900000       1.09440000       1.81280000
H        1.10890000       1.50940000       0.96840000
H       -2.08620000       0.23150000      -0.66740000
H       -2.44550000      -2.23470000      -0.85800000
H       -0.23680000      -3.10770000      -1.09980000
H        0.22530000      -2.50110000       0.34700000
H       -3.09790000      -1.03350000       1.19400000
