21
Properties=species:S:1:pos:R:3 gdb_71576=T pbc="F F F"
C       -0.15350000       1.45040000       0.08090000
C        0.06690000      -0.03480000       0.05300000
C        0.92100000      -0.78120000      -1.00510000
C        0.84210000      -1.91650000       0.02180000
C        0.80280000      -0.87420000       1.19220000
C       -0.28190000      -1.69190000       1.90240000
C       -0.69020000      -2.03970000       0.44690000
C       -1.60530000      -3.16640000       0.06170000
O       -1.17410000      -0.76490000      -0.02150000
H        0.80250000       1.98160000       0.10580000
H       -0.70270000       1.77200000      -0.81030000
H       -0.73580000       1.73950000       0.96120000
H        0.47680000      -0.90430000      -1.99670000
H        1.93920000      -0.38780000      -1.08090000
H        1.46080000      -2.81250000       0.02060000
H        1.68770000      -0.45300000       1.66670000
H        0.15160000      -2.54370000       2.43520000
H       -1.03470000      -1.19080000       2.51730000
H       -2.60980000      -2.99730000       0.46380000
H       -1.68440000      -3.24660000      -1.02690000
H       -1.23300000      -4.11690000       0.45480000
