22
Properties=species:S:1:pos:R:3 gdb_103829=T pbc="F F F"
C       -0.28590000       1.40520000      -0.44670000
C       -0.05980000       0.04170000       0.20610000
O        0.37140000       0.16740000       1.56210000
C       -1.29960000      -0.82510000       0.11610000
N       -1.52850000      -1.56180000      -1.14610000
C       -1.28770000      -2.31080000       0.10100000
C       -0.00720000      -3.11500000       0.17280000
C       -2.47210000      -3.03400000       0.72360000
O       -3.65330000      -2.27040000       0.52480000
H        0.61400000       2.02140000      -0.36850000
H       -0.54380000       1.28490000      -1.50320000
H       -1.11110000       1.93900000       0.04260000
H        0.76670000      -0.45970000      -0.30470000
H       -0.31290000       0.64860000       2.04040000
H       -2.18230000      -0.37470000       0.57080000
H       -2.52810000      -1.56600000      -1.34000000
H        0.79170000      -2.63280000      -0.39130000
H        0.32540000      -3.23260000       1.20970000
H       -0.15540000      -4.11350000      -0.25480000
H       -2.56710000      -4.02690000       0.25430000
H       -2.27600000      -3.19420000       1.79580000
H       -4.40220000      -2.77950000       0.84540000
