13
Properties=species:S:1:pos:R:3 gdb_132398=T pbc="F F F"
O        0.11440000       1.30430000      -0.01370000
C        0.08950000      -0.04200000      -0.03340000
C        0.00770000      -0.69190000      -1.26290000
C       -0.01390000      -2.07720000      -1.21260000
F       -0.09110000      -2.75940000      -2.35140000
C        0.04210000      -2.77610000      -0.01660000
C        0.12180000      -1.99860000       1.13660000
O        0.17920000      -2.61740000       2.33120000
N        0.14570000      -0.66630000       1.14250000
H        0.17220000       1.56140000       0.91650000
H       -0.03600000      -0.14850000      -2.19540000
H        0.02520000      -3.85550000       0.02120000
H        0.22970000      -1.91830000       2.99720000
