19
Properties=species:S:1:pos:R:3 gdb_104356=T pbc="F F F"
C       -0.06740000       1.58840000       0.04790000
C       -0.04620000       0.05590000       0.04430000
C       -1.46480000      -0.53650000       0.03840000
O       -2.16050000      -0.18940000      -1.14000000
O        0.61180000      -0.45570000      -1.12300000
C        1.97600000      -0.75150000      -0.81020000
C        1.96640000      -1.23670000       0.64020000
C        0.76890000      -0.48820000       1.22530000
O        0.49270000      -0.34100000       2.38690000
H        0.93430000       1.99880000      -0.10940000
H       -0.72430000       1.94060000      -0.75030000
H       -0.44180000       1.95180000       1.00900000
H       -1.39620000      -1.62900000       0.15610000
H       -2.03050000      -0.13860000       0.88510000
H       -1.60890000      -0.48470000      -1.87460000
H        2.32310000      -1.49740000      -1.52840000
H        2.60100000       0.14730000      -0.91950000
H        1.75620000      -2.31130000       0.70090000
H        2.87740000      -1.03700000       1.20690000
