23
Properties=species:S:1:pos:R:3 gdb_101462=T pbc="F F F"
C       -0.07590000       1.40580000       0.04650000
O       -0.04100000      -0.00020000       0.08610000
C       -1.31540000      -0.63660000       0.05100000
C       -1.89670000      -0.63910000      -1.36500000
C       -1.09620000      -2.05570000       0.61260000
C       -0.62110000      -2.05290000       2.09350000
C       -1.85090000      -2.46690000       2.94480000
C       -2.78320000      -3.07580000       1.92560000
C       -2.37170000      -2.86950000       0.67590000
H        0.95090000       1.75690000       0.18040000
H       -0.45210000       1.79840000      -0.90980000
H       -0.69890000       1.82100000       0.85480000
H       -2.00470000      -0.09670000       0.72350000
H       -2.89600000      -1.08320000      -1.37520000
H       -1.98570000       0.37660000      -1.76060000
H       -1.25220000      -1.21210000      -2.03990000
H       -0.34700000      -2.52580000      -0.03780000
H        0.17510000      -2.79220000       2.21910000
H       -0.20300000      -1.08560000       2.37770000
H       -1.58530000      -3.16950000       3.74320000
H       -2.32390000      -1.60970000       3.44430000
H       -3.68900000      -3.60470000       2.20330000
H       -2.89070000      -3.21290000      -0.21220000
