17
Properties=species:S:1:pos:R:3 gdb_48173=T pbc="F F F"
O       -0.73010000       1.43530000      -0.42120000
C        0.16870000       1.38440000       0.36910000
C        1.42270000       2.26870000       0.32900000
O        2.27130000       2.16450000       1.18210000
O        1.42640000       3.08970000      -0.71480000
C        2.56820000       3.97960000      -0.85680000
C        2.28690000       5.32890000      -0.25990000
C        2.50160000       5.56470000       1.21570000
C        3.45120000       6.16670000       0.21440000
H        0.19750000       0.68900000       1.23200000
H        3.43620000       3.51150000      -0.38640000
H        2.72490000       4.04220000      -1.93630000
H        1.46360000       5.86090000      -0.72720000
H        1.80920000       6.22400000       1.72680000
H        2.84860000       4.72610000       1.80770000
H        4.44700000       5.74230000       0.14000000
H        3.41130000       7.23480000       0.03460000
