19
Properties=species:S:1:pos:R:3 gdb_99815=T pbc="F F F"
C        0.11210000       1.48400000       0.21580000
C        0.15460000      -0.02550000      -0.02670000
C        0.65450000      -0.45800000      -1.43930000
C       -0.25710000       0.07630000      -2.56840000
C        2.02600000       0.02050000      -1.64330000
N        3.11920000       0.36600000      -1.79980000
C        0.58330000      -2.01590000      -1.47870000
N        1.75510000      -2.68200000      -1.60740000
O       -0.49610000      -2.56390000      -1.38000000
H        1.09410000       1.94360000       0.06510000
H       -0.60330000       1.98680000      -0.44080000
H       -0.19420000       1.68430000       1.24660000
H        0.80360000      -0.49690000       0.72010000
H       -0.83720000      -0.47040000       0.09150000
H       -0.29340000       1.16700000      -2.56160000
H        0.10730000      -0.24670000      -3.54700000
H       -1.26030000      -0.32730000      -2.42070000
H        2.63740000      -2.20990000      -1.71210000
H        1.72490000      -3.68830000      -1.63350000
