19
Properties=species:S:1:pos:R:3 gdb_68832=T pbc="F F F"
C        0.03480000       1.60570000       0.02660000
C       -0.04900000       0.10820000       0.07610000
C        1.08740000      -0.80300000      -0.36890000
C        0.57690000      -0.90600000       1.03920000
O        1.34850000      -0.60540000       2.14620000
C       -0.71360000      -1.74000000       1.08460000
C       -1.31530000      -0.72200000       0.09360000
C       -2.70570000      -0.29480000      -0.04440000
O       -2.05930000      -1.07200000      -1.06520000
H        1.03720000       1.94570000       0.30410000
H       -0.18080000       1.98490000      -0.97890000
H       -0.67670000       2.06660000       0.72040000
H        0.92050000      -1.59380000      -1.09630000
H        2.04050000      -0.29070000      -0.46220000
H        2.04480000      -1.26700000       2.22150000
H       -0.65260000      -2.77770000       0.74080000
H       -1.19620000      -1.70340000       2.06480000
H       -3.48720000      -0.81040000       0.51350000
H       -2.93800000       0.73310000      -0.32110000
