13
Properties=species:S:1:pos:R:3 gdb_25342=T pbc="F F F"
N       -0.27360000       1.28710000      -0.10600000
C       -0.12870000       0.03700000      -0.22680000
O        1.15650000      -0.54730000      -0.20300000
C        1.29950000      -1.87930000      -0.33250000
N        0.37250000      -2.74090000      -0.48340000
C       -0.92640000      -2.23160000      -0.51590000
C       -2.00720000      -3.24590000      -0.69290000
O       -3.18060000      -2.97300000      -0.74190000
C       -1.20310000      -0.91460000      -0.39690000
H        0.62460000       1.75900000       0.00240000
H        2.34630000      -2.16560000      -0.29330000
H       -1.62860000      -4.28500000      -0.77630000
H       -2.21980000      -0.54500000      -0.42530000
