13
Properties=species:S:1:pos:R:3 gdb_33557=T pbc="F F F"
C        0.09610000      -1.14150000       0.05870000
C        0.04280000       0.05580000       0.00080000
C       -0.03240000       1.51670000      -0.02290000
C       -0.61840000       2.10570000       1.31920000
O        0.43670000       2.95370000       1.81060000
C        1.44150000       2.85520000       0.91950000
N        1.32800000       2.12290000      -0.11110000
C       -0.83280000       1.95920000      -1.18290000
N       -1.48300000       2.32710000      -2.06330000
H        0.14930000      -2.20230000       0.09290000
H       -1.51170000       2.71060000       1.15940000
H       -0.81370000       1.32230000       2.05190000
H        2.32050000       3.44070000       1.16410000
