21
Properties=species:S:1:pos:R:3 gdb_119732=T pbc="F F F"
C        0.13900000       1.51310000       0.00540000
C        0.03010000      -0.00170000      -0.00750000
O        0.70120000      -0.48740000      -1.16290000
C        0.68000000      -1.87010000      -1.28780000
C        1.56310000      -2.72800000      -0.33150000
C        2.19660000      -3.43690000      -1.57310000
C        1.30800000      -2.58710000      -2.51100000
O        0.05440000      -3.23120000      -2.82020000
C       -0.63240000      -2.55030000      -1.74370000
H        1.18790000       1.82120000       0.03460000
H       -0.31750000       1.93770000      -0.89310000
H       -0.36950000       1.92450000       0.88240000
H        0.48040000      -0.43010000       0.90130000
H       -1.02690000      -0.31220000      -0.02470000
H        2.27980000      -2.10990000       0.21410000
H        1.03210000      -3.36590000       0.37950000
H        3.26700000      -3.24580000      -1.68290000
H        2.01340000      -4.50910000      -1.66240000
H        1.75250000      -2.08550000      -3.37350000
H       -1.11370000      -3.24910000      -1.04850000
H       -1.37550000      -1.83950000      -2.12780000
