18
Properties=species:S:1:pos:R:3 gdb_52224=T pbc="F F F"
O       -0.10560000      -0.19010000      -0.13690000
C        0.08620000       0.96740000       0.12970000
C        1.35180000       1.73160000      -0.18850000
C        1.06620000       2.97370000      -1.04560000
N        2.28260000       3.78180000      -1.13490000
C        3.12900000       3.63000000      -2.29110000
C        2.37070000       4.91380000      -2.07260000
C        1.28310000       5.25460000      -3.02740000
O        1.04640000       6.38260000      -3.38270000
H       -0.69400000       1.57150000       0.65080000
H        1.79690000       2.06890000       0.75700000
H        2.05750000       1.05920000      -0.68370000
H        0.67980000       2.65390000      -2.02500000
H        0.29010000       3.58520000      -0.57010000
H        4.20170000       3.62050000      -2.11990000
H        2.78500000       2.98520000      -3.10080000
H        2.89500000       5.78190000      -1.68210000
H        0.69690000       4.39390000      -3.41730000
