16
Properties=species:S:1:pos:R:3 gdb_127331=T pbc="F F F"
C       -0.04670000       1.37220000       0.04980000
N       -0.05410000      -0.07510000       0.00060000
C       -0.13250000      -0.89630000      -1.06680000
N       -0.11020000      -2.15400000      -0.67460000
C       -0.01320000      -2.04780000       0.68550000
N        0.02280000      -0.80010000       1.13560000
C        0.05370000      -3.24840000       1.55540000
N       -0.18020000      -4.41270000       0.85330000
N        0.27490000      -3.11500000       2.80790000
H        0.87720000       1.72490000       0.51360000
H       -0.11480000       1.75870000      -0.96860000
H       -0.89740000       1.73010000       0.63410000
H       -0.20210000      -0.53730000      -2.08270000
H       -0.10740000      -4.35180000      -0.15150000
H        0.12150000      -5.27600000       1.27450000
H        0.28660000      -4.02670000       3.27040000
