17
Properties=species:S:1:pos:R:3 gdb_80276=T pbc="F F F"
C       -0.08120000       1.49670000       0.08460000
C       -0.02050000      -0.00850000      -0.00400000
C       -1.26040000      -0.79490000      -0.38550000
C       -1.17910000      -2.09870000       0.40980000
O       -1.91080000      -3.04030000       0.37820000
O       -0.07810000      -2.06400000       1.23370000
C        0.65380000      -0.87550000       1.04020000
C        1.28490000      -0.71330000      -0.32370000
O        1.24570000      -1.76740000      -1.23220000
H        0.85710000       1.91060000       0.46730000
H       -0.26240000       1.94300000      -0.89940000
H       -0.88550000       1.82010000       0.75470000
H       -2.17700000      -0.26580000      -0.10530000
H       -1.32450000      -1.04170000      -1.44750000
H        1.11330000      -0.50940000       1.95050000
H        2.17190000      -0.08140000      -0.37640000
H        1.69350000      -2.52680000      -0.84270000
