16
Properties=species:S:1:pos:R:3 gdb_83915=T pbc="F F F"
O       -0.01880000       1.39730000       0.00730000
C       -0.04510000       0.01590000       0.05220000
C       -1.35300000      -0.74800000       0.05410000
C       -2.61390000       0.03110000      -0.31250000
C       -2.50390000       0.17040000      -1.84300000
O       -1.09030000       0.13250000      -2.13720000
C       -0.48540000      -0.72620000      -1.20140000
C        0.20340000      -1.86810000      -1.72990000
N        0.77310000      -2.79290000      -2.12840000
H       -0.24280000       1.64950000      -0.90080000
H        0.77420000      -0.40840000       0.62450000
H       -1.42080000      -1.65120000       0.64770000
H       -3.51800000      -0.50400000      -0.01610000
H       -2.61290000       1.01060000       0.17450000
H       -3.00210000      -0.66210000      -2.35600000
H       -2.88790000       1.11290000      -2.23910000
