17
Properties=species:S:1:pos:R:3 gdb_32198=T pbc="F F F"
C        0.04230000       1.52580000       0.05390000
C        0.03100000       0.02110000       0.05290000
C        0.01950000      -0.71280000      -1.13050000
N        0.00290000      -2.04760000      -1.17690000
C        0.00050000      -2.66110000       0.00380000
N        0.01640000      -2.08080000       1.20490000
C        0.02900000      -0.74350000       1.23170000
C        0.07880000      -0.09940000       2.60210000
O        1.29280000       0.61490000       2.81830000
H        0.83820000       1.90730000       0.69760000
H        0.18150000       1.91520000      -0.95800000
H       -0.90270000       1.92980000       0.43740000
H        0.02330000      -0.19610000      -2.08950000
H       -0.01310000      -3.74840000      -0.00930000
H       -0.71910000       0.64340000       2.70650000
H       -0.07590000      -0.88220000       3.35390000
H        2.01170000      -0.02550000       2.78980000
