22
Properties=species:S:1:pos:R:3 gdb_12003=T pbc="F F F"
C       -0.00190000       1.54770000      -0.00550000
C        0.00480000       0.01320000       0.00460000
C       -1.44270000      -0.51280000      -0.00070000
C        0.79510000      -0.57110000      -1.20330000
C        1.35400000      -1.93410000      -0.73400000
C        1.54440000      -1.77420000       0.76800000
C        2.24560000      -0.52520000       1.24450000
C        0.73700000      -0.57570000       1.21460000
H        1.01550000       1.94810000       0.05170000
H       -0.46500000       1.93480000      -0.92040000
H       -0.56640000       1.94760000       0.84440000
H       -1.99310000      -0.13650000      -0.87030000
H       -1.47110000      -1.60680000      -0.03060000
H       -1.98080000      -0.19180000       0.89840000
H        0.16800000      -0.66050000      -2.09550000
H        1.61640000       0.10270000      -1.46850000
H        0.63050000      -2.73540000      -0.92540000
H        2.27520000      -2.20580000      -1.26160000
H        1.61360000      -2.66640000       1.38100000
H        2.71910000      -0.56460000       2.21960000
H        2.77720000       0.09300000       0.52760000
H        0.21150000      -0.57750000       2.16490000
