13
Properties=species:S:1:pos:R:3 gdb_23649=T pbc="F F F"
C       -0.00260000       1.49810000       0.03280000
C        0.02090000      -0.00240000      -0.02180000
C       -0.11160000      -0.71650000      -1.21330000
C       -0.07270000      -2.10200000      -1.12930000
N        0.08360000      -2.75070000       0.02750000
C        0.19760000      -1.96070000       1.08160000
F        0.35300000      -2.58090000       2.23670000
N        0.17840000      -0.64430000       1.14610000
H        0.92890000       1.87110000       0.46990000
H       -0.13220000       1.93820000      -0.95790000
H       -0.81540000       1.83650000       0.68290000
H       -0.23940000      -0.21320000      -2.16330000
H       -0.16970000      -2.72170000      -2.01730000
