19
Properties=species:S:1:pos:R:3 gdb_126404=T pbc="F F F"
C        0.25320000       1.37950000      -0.36610000
C       -0.05540000       0.01820000       0.28060000
C       -1.47740000      -0.41950000       0.08210000
N       -2.37980000      -0.23560000       1.06710000
N       -3.50370000      -0.68620000       0.49530000
C       -4.91570000      -1.04510000       0.67770000
C       -4.83510000      -1.58630000      -0.80910000
C       -3.37270000      -1.15720000      -0.75190000
C       -2.04290000      -1.00710000      -1.09270000
H        1.29760000       1.66340000      -0.20070000
H        0.07640000       1.35290000      -1.44620000
H       -0.38500000       2.16080000       0.05750000
H        0.61960000      -0.74130000      -0.13190000
H        0.13940000       0.07030000       1.35610000
H       -5.08570000      -1.80750000       1.44250000
H       -5.57820000      -0.19160000       0.84480000
H       -5.01260000      -2.65960000      -0.90620000
H       -5.46570000      -1.05040000      -1.52220000
H       -1.52970000      -1.26080000      -2.00540000
