17
Properties=species:S:1:pos:R:3 gdb_86872=T pbc="F F F"
C       -0.04800000       1.39310000       0.00770000
N       -0.03580000      -0.04630000       0.10860000
C       -1.20830000      -0.85100000      -0.14850000
C       -0.64370000      -2.28750000      -0.00130000
N        0.76150000      -2.10400000      -0.29320000
C        1.13200000      -0.77330000      -0.05100000
O        2.26060000      -0.34160000      -0.00420000
C       -0.89620000      -2.87460000       1.38460000
O       -0.02750000      -3.29570000       2.10010000
H        0.98130000       1.73730000       0.12190000
H       -0.43230000       1.73200000      -0.96550000
H       -0.66680000       1.83530000       0.79640000
H       -2.01540000      -0.64590000       0.56600000
H       -1.60830000      -0.68590000      -1.16050000
H       -1.13610000      -2.96150000      -0.71680000
H        1.39940000      -2.78780000       0.09130000
H       -1.97030000      -2.91350000       1.67960000
