14
Properties=species:S:1:pos:R:3 gdb_43168=T pbc="F F F"
O       -0.00230000       0.04110000       0.05140000
C       -0.00140000       1.23830000       0.02260000
C       -1.18980000       2.20920000       0.02750000
O       -0.82330000       3.18880000       0.93750000
C        0.63550000       3.23100000       1.04590000
C        1.13300000       2.25150000      -0.01790000
N        1.07300000       2.89600000      -1.35290000
C       -0.08110000       3.07820000      -1.84670000
O       -1.29010000       2.75750000      -1.31880000
H       -2.17010000       1.80040000       0.26090000
H        0.96410000       4.25570000       0.85990000
H        0.92280000       2.92480000       2.05760000
H        2.12590000       1.84500000       0.16450000
H       -0.19920000       3.54960000      -2.81960000
