17
Properties=species:S:1:pos:R:3 gdb_41442=T pbc="F F F"
C       -0.01250000       1.54780000       0.18240000
C        1.48940000       1.59780000      -0.30970000
C        1.26110000       0.16950000      -0.83720000
O        0.40740000       0.14670000      -2.04090000
C       -0.15090000      -0.88500000      -1.19040000
C        1.30270000      -1.40160000      -0.79470000
O        1.32370000      -1.86330000       0.51850000
C        0.46880000      -0.91620000       1.21920000
C        0.02700000      -0.01300000       0.08930000
H       -0.21410000       1.95130000       1.17600000
H       -0.69540000       1.99720000      -0.53670000
H        1.76590000       2.34910000      -1.05230000
H        2.19790000       1.62740000       0.52140000
H       -0.99660000      -1.46490000      -1.57070000
H        1.90540000      -2.02020000      -1.45820000
H       -0.34140000      -1.46760000       1.70930000
H        1.05470000      -0.39840000       1.98860000
