16
Properties=species:S:1:pos:R:3 gdb_79440=T pbc="F F F"
C       -0.22170000       1.43780000       0.09200000
N        0.00630000      -0.00240000       0.03920000
C        0.77640000      -0.42700000      -1.15690000
C        2.15350000      -0.28030000      -0.46980000
O        2.59350000      -1.58590000      -0.89280000
C        1.16800000      -1.93410000      -0.91770000
C        0.95190000      -1.96360000       0.60990000
O        0.69070000      -2.84620000       1.36850000
C        1.22560000      -0.45980000       0.81080000
H        0.67630000       2.04780000      -0.10900000
H       -0.98650000       1.70350000      -0.64500000
H       -0.60070000       1.70580000       1.08230000
H        0.48250000      -0.07960000      -2.14650000
H        2.90330000       0.50410000      -0.55070000
H        0.91060000      -2.78150000      -1.54660000
H        1.40330000      -0.06250000       1.80600000
