21
Properties=species:S:1:pos:R:3 gdb_41356=T pbc="F F F"
C        0.07860000       1.51420000       0.26670000
O        1.49330000       1.41740000      -0.10520000
C        1.14820000       0.24970000      -0.90210000
C        0.63000000       0.64050000      -2.32100000
C       -0.77020000      -0.03930000      -2.39430000
C       -0.77410000      -0.89090000      -1.11430000
C        0.40850000      -1.94260000      -1.23390000
C        1.76680000      -1.13740000      -0.98600000
C       -0.10100000       0.00810000      -0.07320000
H       -0.03910000       1.79860000       1.31520000
H       -0.45730000       2.22540000      -0.37300000
H        0.57380000       1.72600000      -2.41890000
H        1.30720000       0.28010000      -3.09980000
H       -1.57610000       0.70180000      -2.37370000
H       -0.90750000      -0.64350000      -3.29590000
H       -1.72970000      -1.36230000      -0.87660000
H        0.29540000      -2.72830000      -0.48270000
H        0.39830000      -2.42670000      -2.21440000
H        2.48590000      -1.28180000      -1.79710000
H        2.23550000      -1.43760000      -0.04560000
H        0.13950000      -0.55690000       0.83200000
