15
Properties=species:S:1:pos:R:3 gdb_34701=T pbc="F F F"
N       -0.02920000      -1.22840000      -0.06570000
C       -0.03210000      -0.07230000      -0.04320000
C       -0.01540000       1.38090000       0.00870000
C       -0.23410000       2.10360000       1.37430000
C        0.95420000       1.72400000       2.27620000
C        2.08040000       1.74580000       1.30260000
C        1.35120000       2.13420000       0.00370000
C        0.73080000       3.24270000       0.91340000
N        1.72270000       2.99840000       2.05530000
H       -0.68310000       1.79330000      -0.75440000
H       -1.22280000       2.24480000       1.80230000
H        0.96100000       1.20230000       3.22410000
H        3.02870000       1.24230000       1.43640000
H        1.91410000       2.30540000      -0.90980000
H        0.45430000       4.25090000       0.61620000
