17
Properties=species:S:1:pos:R:3 gdb_88914=T pbc="F F F"
C       -0.16640000       1.39570000       0.41540000
C        0.10300000      -0.07190000       0.17050000
C        1.47000000      -0.53610000      -0.30010000
C        1.00250000      -0.86190000       1.08140000
O        1.68330000      -0.17440000       2.12180000
C        1.16140000      -0.31880000       3.35730000
O        0.19480000      -0.98420000       3.62930000
C        1.93460000       0.43040000       4.32410000
C        2.53560000       1.03560000       5.17020000
H        0.71220000       1.89520000       0.83220000
H       -0.43230000       1.90260000      -0.51780000
H       -0.99410000       1.53070000       1.11970000
H       -0.74640000      -0.63230000      -0.21110000
H        1.54850000      -1.34140000      -1.02170000
H        2.24200000       0.22210000      -0.37980000
H        0.73130000      -1.87400000       1.35470000
H        3.06800000       1.57040000       5.91860000
