21
Properties=species:S:1:pos:R:3 gdb_84452=T pbc="F F F"
C        0.03360000       1.66100000      -0.05870000
C        0.01270000       0.12640000      -0.02980000
C        0.72550000      -0.53200000      -1.19750000
C        1.50850000      -1.54760000      -0.83620000
C        1.50110000      -1.76890000       0.65860000
C        1.17880000      -3.18040000       1.10470000
O        2.72400000      -1.28320000       1.28940000
C        2.08400000      -0.04080000       1.64650000
C        0.69670000      -0.54330000       1.18250000
H        1.05400000       2.05430000      -0.08600000
H       -0.48730000       2.03560000      -0.94620000
H       -0.46790000       2.07830000       0.82070000
H       -1.04500000      -0.17790000      -0.04470000
H        0.58020000      -0.19060000      -2.21840000
H        2.10090000      -2.16230000      -1.50560000
H        1.95150000      -3.87410000       0.75590000
H        1.13900000      -3.23860000       2.19620000
H        0.21720000      -3.50690000       0.69530000
H        2.18710000       0.17180000       2.71650000
H        2.49080000       0.80480000       1.07840000
H        0.01230000      -0.74350000       2.00850000
