17
Properties=species:S:1:pos:R:3 gdb_84707=T pbc="F F F"
O       -0.03970000       1.39770000      -0.16880000
C        0.05370000      -0.01140000      -0.06370000
C        0.61400000      -0.51380000       1.27030000
C       -0.08700000      -1.52730000       1.78900000
C       -1.18200000      -1.95330000       0.83380000
O       -2.50160000      -2.13790000       1.33840000
C       -3.40080000      -1.41510000       0.48800000
C       -2.53450000      -0.42060000      -0.25780000
C       -1.26290000      -0.74320000      -0.06460000
H       -0.63620000       1.69130000       0.52990000
H        0.70730000      -0.30860000      -0.89470000
H        1.49910000      -0.05930000       1.70230000
H        0.13180000      -2.04660000       2.71490000
H       -0.87300000      -2.87160000       0.30170000
H       -3.93550000      -2.10650000      -0.18500000
H       -4.15500000      -0.91940000       1.11320000
H       -2.92530000       0.44830000      -0.77160000
