19
Properties=species:S:1:pos:R:3 gdb_36655=T pbc="F F F"
N        0.33180000      -1.22290000      -1.11820000
C        0.37450000      -0.06810000      -1.11800000
C        0.45100000       1.39040000      -1.09790000
C        1.50260000       1.91370000      -0.09340000
C        1.53280000       3.42550000      -0.08320000
C        2.70050000       4.27680000       0.21780000
C        4.01700000       3.69120000      -0.28820000
C        3.33860000       3.61420000      -1.67760000
N        2.07290000       4.26860000      -1.17690000
H        0.68420000       1.74670000      -2.10720000
H       -0.53910000       1.78960000      -0.84940000
H        1.24720000       1.55890000       0.91100000
H        2.47690000       1.48270000      -0.33340000
H        0.58910000       3.85620000       0.25210000
H        2.61860000       5.14150000       0.86970000
H        4.83530000       4.41230000      -0.26300000
H        4.35830000       2.76300000       0.17970000
H        3.79910000       4.26250000      -2.42470000
H        3.19550000       2.62400000      -2.12160000
