18
Properties=species:S:1:pos:R:3 gdb_100745=T pbc="F F F"
N       -0.07950000       0.83920000      -0.09260000
H       -0.05720000      -0.17340000       0.00560000
H        1.44560000       1.45310000       0.43030000
H       -0.62360000       1.05590000      -0.92170000
C       -0.75160000       1.41470000       1.08690000
C       -2.22040000       1.00450000       1.19540000
O       -2.84460000       1.42200000      -0.01170000
C        0.04200000       1.05690000       2.34260000
O       -0.03440000      -0.35910000       2.50960000
C        1.53870000       1.45530000       2.32690000
O        2.14970000       1.48400000       3.36770000
O        2.10260000       1.69180000       1.14700000
H       -0.71950000       2.50520000       0.97110000
H       -2.28840000      -0.08270000       1.33480000
H       -2.67640000       1.48890000       2.07270000
H       -3.73780000       1.06750000      -0.03420000
H       -0.39900000       1.57180000       3.20720000
H        0.56300000      -0.58700000       3.23220000
