17
Properties=species:S:1:pos:R:3 gdb_39526=T pbc="F F F"
C       -0.13630000       1.41350000       0.03450000
N        1.21470000       1.95740000       0.25330000
C        2.03510000       1.06390000      -0.13530000
O        3.28830000       0.95760000       0.37480000
C        3.21900000      -0.18160000       1.29970000
C        1.76270000      -0.52480000       1.69100000
N        1.01310000      -0.94180000       0.47710000
C        0.05140000      -0.07610000      -0.27530000
C        1.45740000      -0.20090000      -0.71000000
H       -0.72000000       1.60810000       0.94160000
H       -0.66560000       1.89830000      -0.79630000
H        3.68020000      -1.04990000       0.81430000
H        3.81130000       0.09580000       2.17480000
H        1.78290000      -1.37160000       2.38460000
H        1.30440000       0.32290000       2.21210000
H       -0.75900000      -0.64110000      -0.72220000
H        1.87090000      -0.73270000      -1.56020000
