13
Properties=species:S:1:pos:R:3 gdb_27127=T pbc="F F F"
N       -0.22030000       1.26680000       0.40320000
C       -0.11180000      -0.07950000       0.09090000
C       -1.05840000      -0.97190000      -0.30170000
O       -2.36200000      -0.85720000      -0.65520000
C       -3.29610000      -1.08700000       0.33470000
O       -4.45990000      -1.01170000       0.11990000
O       -0.46510000      -2.20710000      -0.43580000
C        0.81760000      -1.98050000      -0.10010000
N        1.09320000      -0.75590000       0.21920000
H        0.67440000       1.73510000       0.35200000
H       -0.92420000       1.75760000      -0.13150000
H       -2.81430000      -1.32800000       1.29840000
H        1.48630000      -2.82620000      -0.12610000
