21
Properties=species:S:1:pos:R:3 gdb_120663=T pbc="F F F"
C       -0.02360000       1.36850000       0.28490000
O       -0.06150000      -0.03650000       0.34610000
C       -1.21890000      -0.57880000      -0.25440000
C       -1.14460000      -2.08010000      -0.19120000
C       -1.55060000      -2.80250000       1.07490000
C       -2.40060000      -2.89890000      -0.15270000
C       -3.85290000      -2.47070000      -0.35790000
O       -4.11580000      -3.66250000      -1.12970000
C       -2.75770000      -4.13150000      -0.97700000
H        0.90110000       1.69290000       0.76840000
H       -0.02860000       1.73470000      -0.75450000
H       -0.87780000       1.82550000       0.81040000
H       -2.12540000      -0.21990000       0.26540000
H       -1.29740000      -0.23910000      -1.30220000
H       -0.31060000      -2.50620000      -0.74380000
H       -0.97910000      -3.67450000       1.37650000
H       -1.91600000      -2.20000000       1.90150000
H       -4.47030000      -2.42380000       0.54900000
H       -4.01590000      -1.55870000      -0.94790000
H       -2.24580000      -4.22900000      -1.94390000
H       -2.71230000      -5.09300000      -0.44800000
