20
Properties=species:S:1:pos:R:3 gdb_94640=T pbc="F F F"
O        0.26220000       1.10120000      -0.63420000
C        0.07230000      -0.09820000       0.07710000
C       -0.14610000      -0.04990000       1.61340000
C       -1.30130000      -1.07350000       1.43000000
C       -1.34060000      -0.72130000      -0.09030000
C       -2.42040000       0.28660000      -0.48500000
C       -3.80660000      -0.38290000      -0.57850000
C       -4.86630000       0.56010000      -0.92880000
N       -5.69400000       1.31790000      -1.20500000
H        1.14860000       1.42900000      -0.45320000
H        0.84500000      -0.83700000      -0.18090000
H        0.69010000      -0.33010000       2.25840000
H       -0.51480000       0.93390000       1.91620000
H       -0.98190000      -2.10260000       1.61100000
H       -2.21430000      -0.89190000       2.00310000
H       -1.38160000      -1.57780000      -0.77190000
H       -2.46440000       1.10880000       0.23650000
H       -2.16810000       0.73800000      -1.44850000
H       -3.79040000      -1.18060000      -1.33080000
H       -4.07030000      -0.85780000       0.37380000
