23
Properties=species:S:1:pos:R:3 gdb_58275=T pbc="F F F"
C        0.07810000       1.55580000       0.01700000
C       -0.06060000       0.02820000      -0.04850000
C       -1.53720000      -0.39240000      -0.02080000
C        0.71080000      -0.53860000      -1.25150000
C        0.78040000      -2.06140000      -1.31570000
O        0.06080000      -0.03410000      -2.45020000
C        0.82420000       0.12300000      -3.55110000
C       -0.00280000       0.66090000      -4.69570000
O        2.00170000      -0.13190000      -3.60300000
H        1.12970000       1.86080000       0.04450000
H       -0.38520000       2.02530000      -0.85620000
H       -0.41080000       1.95360000       0.91160000
H        0.43360000      -0.39460000       0.83730000
H       -2.05910000      -0.03400000      -0.91290000
H       -1.65540000      -1.47880000       0.02640000
H       -2.03670000       0.03180000       0.85580000
H        1.72970000      -0.13970000      -1.24470000
H       -0.21120000      -2.50120000      -1.45160000
H        1.41720000      -2.37090000      -2.14740000
H        1.21090000      -2.45750000      -0.39040000
H       -0.82730000      -0.02310000      -4.91600000
H       -0.44430000       1.62310000      -4.42080000
H        0.62840000       0.77880000      -5.57560000
