17
Properties=species:S:1:pos:R:3 gdb_2215=T pbc="F F F"
O       -0.02760000       1.41080000      -0.24090000
C        0.00410000       0.03240000       0.00690000
C        0.49340000      -0.89450000      -1.14200000
C       -0.83840000      -1.70340000      -1.04590000
C       -1.33600000      -0.77440000       0.09360000
C       -0.94870000      -1.24420000       1.52140000
C        0.38240000      -0.43240000       1.44200000
H        0.88090000       1.73350000      -0.25830000
H        0.58990000      -0.34530000      -2.08190000
H        1.41950000      -1.44720000      -0.95790000
H       -1.44160000      -1.65020000      -1.95490000
H       -0.73460000      -2.75590000      -0.76790000
H       -2.31030000      -0.30240000      -0.03260000
H       -1.62450000      -0.88880000       2.30240000
H       -0.83780000      -2.32630000       1.63430000
H        1.31230000      -1.00090000       1.53810000
H        0.40860000       0.40940000       2.13850000
