19
Properties=species:S:1:pos:R:3 gdb_13236=T pbc="F F F"
N       -0.14940000      -1.15360000      -0.15160000
C       -0.10790000      -0.00230000      -0.05880000
C       -0.03050000       1.45220000       0.05380000
C        1.39770000       1.99430000      -0.16520000
C        1.46040000       3.50890000      -0.02820000
C        1.25000000       4.15980000       1.37170000
C        2.37350000       5.17360000       1.02430000
C        2.84910000       4.20540000      -0.09200000
H       -0.71890000       1.89390000      -0.67650000
H       -0.39670000       1.74320000       1.04520000
H        2.07240000       1.52730000       0.56200000
H        1.74820000       1.69020000      -1.15840000
H        0.78180000       3.97270000      -0.75520000
H        0.26030000       4.55550000       1.61320000
H        1.55750000       3.47950000       2.17370000
H        1.96730000       6.10080000       0.61040000
H        3.08560000       5.42930000       1.81160000
H        3.64160000       3.53860000       0.26390000
H        3.16010000       4.63320000      -1.04800000
