16
Properties=species:S:1:pos:R:3 gdb_27230=T pbc="F F F"
N        0.04270000       1.41230000       0.15020000
C       -0.03470000       0.01950000       0.04820000
C       -1.13720000      -0.79850000       0.02380000
C       -2.63650000      -0.89150000       0.03680000
C       -2.83920000      -2.40110000      -0.00290000
C       -1.65940000      -3.03330000      -0.02940000
N       -0.61980000      -2.09110000      -0.01470000
C        0.73310000      -2.00100000      -0.00470000
N        1.11790000      -0.73750000       0.02750000
H        0.97380000       1.72800000      -0.09130000
H       -0.64390000       1.89580000      -0.41430000
H       -3.09080000      -0.44700000       0.93380000
H       -3.11640000      -0.40070000      -0.82240000
H       -3.80700000      -2.88100000      -0.00960000
H       -1.43680000      -4.08960000      -0.05890000
H        1.38510000      -2.86020000      -0.02500000
