19
Properties=species:S:1:pos:R:3 gdb_50999=T pbc="F F F"
O       -0.40340000       0.06290000      -0.31850000
C       -0.23440000       1.19480000       0.05710000
C        1.10870000       1.89470000       0.07430000
C        1.33970000       2.81380000      -1.12880000
C        0.98570000       2.34130000      -2.51390000
C        0.18100000       3.44580000      -1.87060000
C        2.57670000       3.65260000      -0.96170000
C        3.88240000       3.25610000      -1.50740000
O        3.10190000       4.28660000      -2.12430000
H       -1.09140000       1.80810000       0.41670000
H        1.16900000       2.48930000       0.99690000
H        1.88970000       1.12760000       0.10520000
H        1.65290000       2.62480000      -3.31930000
H        0.53030000       1.36190000      -2.60930000
H       -0.83400000       3.23430000      -1.55370000
H        0.32970000       4.45130000      -2.24800000
H        2.57490000       4.29140000      -0.07490000
H        4.79960000       3.59350000      -1.02800000
H        3.96040000       2.33230000      -2.07790000
