15
Properties=species:S:1:pos:R:3 gdb_19342=T pbc="F F F"
O       -0.89160000       1.20930000      -0.01000000
C        0.26070000       0.84750000      -0.10020000
C        1.42070000       1.73480000       0.05620000
C        1.30980000       3.09850000       0.70370000
C        1.71540000       3.03330000      -0.72390000
C        3.12730000       2.46700000      -0.93950000
C        3.84440000       2.06820000       0.29150000
N        2.79750000       1.17620000      -0.24070000
H        0.53400000      -0.20350000      -0.33400000
H        0.26860000       3.36480000       0.85430000
H        1.97670000       3.41970000       1.49480000
H        1.11110000       3.43400000      -1.52650000
H        3.59690000       2.45380000      -1.91720000
H        4.83630000       1.64690000       0.15540000
H        3.71190000       2.58370000       1.23530000
