18
Properties=species:S:1:pos:R:3 gdb_14130=T pbc="F F F"
C        0.04630000       1.45410000      -0.21850000
C        0.02980000      -0.02500000       0.16910000
O        0.74750000      -0.26960000       1.37600000
C       -1.37380000      -0.56010000       0.26890000
C       -2.42510000      -0.32350000       1.37360000
C       -3.04010000      -1.72310000       1.01510000
C       -1.95870000      -1.87030000      -0.06240000
O       -2.09870000      -0.75160000      -0.95390000
H        1.07590000       1.81370000      -0.29450000
H       -0.45560000       1.60500000      -1.17840000
H       -0.47690000       2.05970000       0.53240000
H        0.54890000      -0.60610000      -0.60130000
H        0.45860000       0.38060000       2.02540000
H       -1.99690000      -0.30910000       2.37880000
H       -3.06500000       0.55020000       1.23030000
H       -2.93950000      -2.44450000       1.82900000
H       -4.06710000      -1.72910000       0.64300000
H       -1.50530000      -2.76790000      -0.46790000
