19
Properties=species:S:1:pos:R:3 gdb_2947=T pbc="F F F"
C       -0.50050000       0.95770000      -0.07240000
O        0.07050000      -0.31930000       0.06630000
C        0.95210000      -0.44560000       1.17790000
C        0.18240000      -0.60430000       2.52160000
C        0.23880000      -2.11560000       2.87890000
C        0.74820000      -2.81150000       1.60250000
C        1.70380000      -1.77130000       1.00130000
H        0.27060000       1.73770000      -0.18120000
H       -1.11550000       0.94250000      -0.97610000
H       -1.14200000       1.23270000       0.77910000
H        1.62990000       0.42100000       1.19280000
H        0.62440000       0.01140000       3.31050000
H       -0.84780000      -0.26170000       2.39190000
H        0.94980000      -2.27980000       3.69660000
H       -0.72620000      -2.50300000       3.21660000
H        1.22460000      -3.77520000       1.80270000
H       -0.07990000      -2.98590000       0.90730000
H        1.95770000      -1.94360000      -0.04710000
H        2.63600000      -1.73820000       1.57860000
