19
Properties=species:S:1:pos:R:3 gdb_61413=T pbc="F F F"
C        0.83780000       1.65990000      -0.50160000
C        0.10330000       0.43870000       0.05870000
C       -1.40420000       0.74560000       0.23120000
C       -2.15150000      -0.09260000       1.25190000
N       -3.30960000       0.47360000       1.70970000
N       -1.67270000      -1.21860000       1.63920000
H       -2.25900000      -1.70210000       2.31700000
H       -0.59360000      -1.81790000       0.47500000
C        0.35580000      -0.78970000      -0.84250000
O        0.93180000      -0.70250000      -1.89940000
O       -0.09030000      -1.95500000      -0.37860000
H        1.89870000       1.44150000      -0.63540000
H        0.44160000       1.93920000      -1.48180000
H        0.73720000       2.51440000       0.17580000
H        0.50270000       0.19730000       1.05110000
H       -1.51100000       1.79640000       0.52650000
H       -1.92220000       0.65220000      -0.73310000
H       -3.69190000       1.27270000       1.23240000
H       -3.97010000      -0.09520000       2.21450000
