20
Properties=species:S:1:pos:R:3 gdb_58919=T pbc="F F F"
C       -0.03820000       1.55570000      -0.03130000
C       -0.04840000       0.01960000       0.01200000
C        0.75250000      -0.51520000       1.20860000
C       -1.45800000      -0.50960000       0.01400000
N       -2.45690000      -0.23350000      -1.08120000
C       -3.22890000      -1.09560000      -0.13240000
C       -1.98840000      -1.97420000       0.18020000
O       -2.13630000      -1.89330000       1.62790000
C       -2.53710000      -0.57060000       1.16540000
H        0.98870000       1.93280000      -0.06500000
H       -0.56160000       1.93660000      -0.91380000
H       -0.51790000       1.97680000       0.85990000
H        0.41780000      -0.34740000      -0.91310000
H        0.32700000      -0.16800000       2.15570000
H        0.76110000      -1.60780000       1.23450000
H        1.78810000      -0.16460000       1.15630000
H       -2.78800000       0.73270000      -1.02230000
H       -4.26320000      -1.40090000      -0.29020000
H       -1.64830000      -2.90590000      -0.26960000
H       -2.85680000       0.17020000       1.90050000
