17
Properties=species:S:1:pos:R:3 gdb_4003=T pbc="F F F"
C        0.07530000       1.61590000      -0.02800000
C       -0.04570000       0.08210000      -0.05400000
C        0.71060000      -0.52570000      -1.21730000
N        1.96870000      -0.80660000      -1.21090000
O        2.55740000      -0.48360000       0.01670000
C        0.00450000      -0.78730000      -2.42620000
C       -0.66130000      -0.97790000      -3.41440000
C       -1.43900000      -1.21990000      -4.61870000
H        1.12030000       1.91600000       0.08120000
H       -0.31460000       2.05650000      -0.95060000
H       -0.49120000       2.02970000       0.81170000
H        0.35380000      -0.33340000       0.87470000
H       -1.09660000      -0.20860000      -0.13350000
H        3.46760000      -0.76830000      -0.11740000
H       -1.04520000      -0.64740000      -5.46590000
H       -1.41650000      -2.27960000      -4.89680000
H       -2.48710000      -0.93360000      -4.48010000
