21
Properties=species:S:1:pos:R:3 gdb_52652=T pbc="F F F"
C       -0.06580000       1.49870000       0.08310000
C       -0.03280000       0.04600000      -0.00330000
C        0.00960000      -1.15510000      -0.08860000
C        0.00000000      -2.61490000      -0.15140000
O       -1.34090000      -3.10670000      -0.32130000
C        0.81090000      -3.20140000      -1.34530000
C        2.22750000      -2.63490000      -1.38710000
C        0.83540000      -4.73520000      -1.22840000
O        0.17200000      -2.81200000      -2.55300000
H        0.93710000       1.90350000       0.25730000
H       -0.44750000       1.94350000      -0.84210000
H       -0.70580000       1.83560000       0.90600000
H        0.41980000      -3.01820000       0.78310000
H       -1.93510000      -2.47500000       0.09470000
H        2.76970000      -2.86230000      -0.46380000
H        2.77380000      -3.07850000      -2.22420000
H        2.20220000      -1.55210000      -1.52440000
H       -0.17960000      -5.13470000      -1.16440000
H        1.32050000      -5.15490000      -2.11350000
H        1.38900000      -5.06110000      -0.34110000
H       -0.77100000      -2.96250000      -2.40510000
