11
Properties=species:S:1:pos:R:3 gdb_1019=T pbc="F F F"
C        0.02540000      -1.19920000      -0.00390000
C        0.00290000       0.00460000       0.00290000
C       -0.00140000       1.41820000       0.01060000
C       -1.09440000       2.24120000       0.02940000
O       -0.71630000       3.53900000       0.03140000
C        0.64560000       3.56060000       0.01360000
C        1.14190000       2.30090000       0.00030000
H        0.03840000      -2.26070000      -0.00970000
H       -2.15380000       2.04870000       0.04240000
H        1.09680000       4.53870000       0.01290000
H        2.17850000       2.00610000      -0.01490000
