20
Properties=species:S:1:pos:R:3 gdb_114464=T pbc="F F F"
C       -0.05620000       1.62160000       0.11100000
C        0.16910000       0.13100000      -0.16540000
C        0.74500000      -0.58260000       1.04360000
O       -0.13060000      -0.58740000       2.21800000
C        0.08530000      -1.99020000       2.42880000
C       -0.97230000      -2.97300000       1.85660000
N       -1.49230000      -2.38980000       0.60370000
C       -0.18450000      -3.08110000       0.58620000
C        0.90580000      -2.12460000       1.13040000
H        0.88050000       2.12780000       0.37200000
H       -0.47660000       2.12620000      -0.76420000
H       -0.75100000       1.75190000       0.94550000
H       -0.76770000      -0.34950000      -0.45060000
H        0.87800000       0.00340000      -0.99540000
H        1.69460000      -0.10130000       1.32700000
H        0.47120000      -2.23480000       3.42200000
H       -1.54670000      -3.71470000       2.39890000
H       -2.17860000      -3.04940000       0.23800000
H       -0.02210000      -3.93420000      -0.06120000
H        1.91450000      -2.53460000       1.12190000
