16
Properties=species:S:1:pos:R:3 gdb_16599=T pbc="F F F"
O       -0.17460000       1.38440000       0.00440000
C       -0.09810000      -0.01590000       0.05130000
C       -0.43690000      -0.80830000       1.27870000
C       -1.35550000      -0.81210000       0.03040000
C       -2.45380000      -0.09400000       0.81060000
O       -3.55330000      -0.97500000       0.98720000
C       -1.52340000      -0.07510000       2.09020000
O       -2.06170000      -0.79770000       3.16340000
H        0.56890000       1.73940000       0.50310000
H        0.70450000      -0.44060000      -0.55270000
H        0.20720000      -1.58380000       1.67750000
H       -1.55010000      -1.58500000      -0.70360000
H       -2.78160000       0.87370000       0.41660000
H       -4.25080000      -0.48400000       1.43470000
H       -1.24030000       0.91100000       2.46820000
H       -2.63430000      -1.46870000       2.76270000
