16
Properties=species:S:1:pos:R:3 gdb_90135=T pbc="F F F"
O        0.07380000       1.45390000       0.12120000
C        0.04830000       0.04960000       0.06850000
C        0.29500000      -0.61410000       1.46970000
C       -1.08410000      -1.27560000       1.37420000
C       -2.22610000      -0.33780000       1.15560000
C       -1.32330000      -0.65780000      -0.00600000
N       -1.65930000      -1.75910000      -0.88120000
C       -1.65030000      -2.78870000      -0.12710000
O       -1.31040000      -2.66370000       1.20130000
H       -0.23950000       1.79200000      -0.72480000
H        0.72420000      -0.34910000      -0.69880000
H        1.11100000      -1.33750000       1.45120000
H        0.43870000       0.08180000       2.30020000
H       -3.21430000      -0.78000000       1.11730000
H       -2.17150000       0.65350000       1.59330000
H       -1.90130000      -3.79940000      -0.42780000
