21
Properties=species:S:1:pos:R:3 gdb_82203=T pbc="F F F"
C       -0.01500000       1.54200000       0.05150000
C        0.01770000       0.01110000      -0.02280000
C        0.72720000      -0.56210000      -1.26010000
C        2.20080000      -0.33310000      -1.48370000
C        1.73540000      -1.60610000      -0.81760000
C        1.71780000      -1.59420000       0.69350000
O        2.10310000      -0.34000000       1.28450000
C        0.69840000      -0.65060000       1.18640000
C       -0.03310000      -0.76490000       2.49670000
H        0.99820000       1.94580000       0.12630000
H       -0.48640000       1.96580000      -0.84050000
H       -0.58170000       1.88720000       0.92290000
H       -1.01660000      -0.35890000      -0.04180000
H        0.11640000      -0.72870000      -2.14120000
H        2.55400000      -0.41050000      -2.50650000
H        2.72900000       0.38270000      -0.86720000
H        1.84630000      -2.56000000      -1.31930000
H        2.02520000      -2.47720000       1.24870000
H       -0.27630000       0.22550000       2.89780000
H       -0.97140000      -1.31640000       2.37420000
H        0.58500000      -1.28270000       3.23440000
