17
Properties=species:S:1:pos:R:3 gdb_84752=T pbc="F F F"
C       -0.11670000       1.58210000      -0.01520000
C        0.09910000       0.07060000      -0.04930000
N        0.85500000      -0.30800000      -1.25050000
C        1.45600000      -1.41260000      -1.23060000
O        1.50110000      -2.33670000      -0.20660000
C        1.03360000      -1.97130000       1.04830000
O        0.95200000      -2.80780000       1.89710000
C        0.77390000      -0.47880000       1.21950000
N        2.01950000       0.23620000       1.51920000
H        0.83430000       2.10870000       0.08290000
H       -0.60330000       1.90300000      -0.93920000
H       -0.74960000       1.86050000       0.83290000
H       -0.88360000      -0.41820000      -0.13120000
H        2.01880000      -1.78500000      -2.08240000
H        0.10790000      -0.37110000       2.07960000
H        2.47810000      -0.18120000       2.32310000
H        2.66590000       0.18150000       0.73730000
