19
Properties=species:S:1:pos:R:3 gdb_110422=T pbc="F F F"
C       -0.16910000       1.32140000      -0.17230000
O        0.28250000       0.00280000       0.05140000
C        0.80270000      -0.60890000      -1.10250000
C        1.21830000      -2.03970000      -0.79890000
C       -0.17310000      -2.57120000      -1.16360000
C       -0.27720000      -1.26270000      -2.02420000
O        0.51850000      -1.85420000      -3.08520000
C        0.95650000      -2.81270000      -2.10430000
C        1.67600000      -4.03520000      -2.55930000
H        0.63880000       1.96730000      -0.54890000
H       -1.00290000       1.36360000      -0.88880000
H       -0.51400000       1.71050000       0.78850000
H        1.51970000       0.05270000      -1.61260000
H        1.89570000      -2.38760000      -0.02960000
H       -0.87740000      -3.20730000      -0.64670000
H       -1.16890000      -0.74250000      -2.36760000
H        2.63090000      -3.77310000      -3.02690000
H        1.88140000      -4.69170000      -1.70860000
H        1.07560000      -4.58900000      -3.28770000
