18
Properties=species:S:1:pos:R:3 gdb_6784=T pbc="F F F"
C       -0.10050000       1.30390000       0.08610000
O        0.01400000      -0.09830000       0.04990000
C        0.54170000      -0.57320000      -1.16490000
C        0.58550000      -2.08400000      -1.12870000
O       -0.76400000      -2.57120000      -1.19120000
C       -0.90420000      -3.91270000      -1.14100000
C       -2.36350000      -4.29700000      -1.18970000
O        0.02380000      -4.67780000      -1.06590000
H        0.87700000       1.79800000      -0.03550000
H       -0.77370000       1.67970000      -0.70060000
H       -0.51250000       1.57290000       1.06150000
H       -0.07020000      -0.23780000      -2.01880000
H        1.56670000      -0.19490000      -1.32370000
H        1.15600000      -2.47380000      -1.97780000
H        1.06050000      -2.43560000      -0.20840000
H       -2.83420000      -3.88050000      -2.08440000
H       -2.45280000      -5.38260000      -1.19010000
H       -2.88650000      -3.88050000      -0.32400000
