17
Properties=species:S:1:pos:R:3 gdb_46580=T pbc="F F F"
N       -0.05970000       1.26610000       0.27970000
C       -0.02330000       0.03350000       0.01890000
O        1.13820000      -0.68860000      -0.20220000
C        0.86780000      -1.96090000      -0.85050000
C       -0.60770000      -2.21070000      -0.65570000
C       -1.15430000      -2.15340000       0.74080000
C       -1.16740000      -0.90500000      -0.10600000
N       -2.21630000      -0.84370000      -1.12580000
C       -1.74730000      -2.14900000      -1.69140000
H        0.87800000       1.66890000       0.23580000
H        1.12120000      -1.88000000      -1.91430000
H        1.52840000      -2.69800000      -0.38560000
H       -2.10270000      -2.63390000       0.96150000
H       -0.42750000      -2.18190000       1.54530000
H       -3.16100000      -0.84500000      -0.75300000
H       -1.39950000      -2.03320000      -2.72330000
H       -2.46570000      -2.97570000      -1.64970000
