17
Properties=species:S:1:pos:R:3 gdb_91062=T pbc="F F F"
O        0.19550000       1.39230000       0.10880000
C        0.04170000      -0.01000000      -0.00440000
C       -1.45570000      -0.47960000      -0.08540000
C       -1.34570000      -1.78340000      -0.88410000
C       -2.07630000      -2.24640000      -2.17890000
O       -1.91550000      -1.25840000      -3.19470000
C       -0.81010000      -2.16240000      -2.95170000
C       -0.13020000      -1.53490000      -1.75610000
C        0.66530000      -0.58270000      -1.28780000
H       -0.19260000       1.78860000      -0.68010000
H        0.52400000      -0.40740000       0.89830000
H       -1.92330000      -0.56680000       0.89830000
H       -2.00600000       0.26870000      -0.66830000
H       -1.20210000      -2.65950000      -0.23790000
H       -2.90950000      -2.93230000      -2.28170000
H       -0.44210000      -2.73010000      -3.79650000
H        1.56480000      -0.16020000      -1.71940000
