18
Properties=species:S:1:pos:R:3 gdb_8206=T pbc="F F F"
C       -0.10490000       1.50640000      -0.07750000
C        0.02890000       0.01660000       0.03080000
C        1.31740000      -0.74150000      -0.26470000
C        0.68630000      -0.77150000       1.12200000
C        1.36120000      -0.25140000       2.35610000
O       -0.17360000      -1.86190000       1.39400000
C       -1.09110000      -1.93860000       0.32150000
O       -1.17720000      -0.65860000      -0.27180000
H        0.81440000       2.00040000       0.24840000
H       -0.29850000       1.80370000      -1.11330000
H       -0.93320000       1.86450000       0.54160000
H        1.28970000      -1.62810000      -0.88850000
H        2.21730000      -0.14490000      -0.37600000
H        1.94620000       0.64340000       2.12710000
H        0.62150000       0.00040000       3.12220000
H        2.04170000      -1.00210000       2.77110000
H       -0.74950000      -2.68030000      -0.42000000
H       -2.07510000      -2.22920000       0.70440000
