16
Properties=species:S:1:pos:R:3 gdb_109101=T pbc="F F F"
C       -0.18190000       1.55770000       0.00050000
C        0.11320000       0.04880000       0.06120000
C        0.78500000      -0.46770000      -1.17380000
C        2.02840000      -0.98080000      -1.31040000
N        2.33980000      -1.36780000      -2.61600000
C        1.26510000      -1.13240000      -3.45930000
O        1.19830000      -1.35600000      -4.63750000
C        0.17280000      -0.50980000      -2.50870000
O       -0.92440000      -0.16510000      -2.87650000
H        0.74260000       2.13510000      -0.09970000
H       -0.82220000       1.78760000      -0.85480000
H       -0.69330000       1.88730000       0.90980000
H        0.73520000      -0.17840000       0.93500000
H       -0.83250000      -0.48920000       0.20210000
H        2.77340000      -1.11720000      -0.53650000
H        3.20830000      -1.78020000      -2.91200000
