18
Properties=species:S:1:pos:R:3 gdb_13377=T pbc="F F F"
C       -0.13620000       1.49910000      -0.01240000
C       -0.00440000      -0.01130000      -0.03670000
O       -1.32570000      -0.56390000       0.10310000
C       -1.39590000      -1.89560000       0.10050000
N       -0.42070000      -2.71220000      -0.02290000
C       -1.02380000      -4.05070000       0.05900000
C       -2.55790000      -3.83330000      -0.09250000
N       -2.67100000      -2.41960000       0.28720000
H        0.85130000       1.95860000      -0.11390000
H       -0.76600000       1.85040000      -0.83490000
H       -0.57910000       1.83720000       0.92880000
H        0.43310000      -0.37230000      -0.97320000
H        0.62200000      -0.38380000       0.78010000
H       -0.62020000      -4.71250000      -0.71290000
H       -0.78790000      -4.50450000       1.03110000
H       -2.88540000      -4.00150000      -1.12830000
H       -3.15140000      -4.47500000       0.56400000
H       -3.43440000      -1.87880000      -0.09380000
