15
Properties=species:S:1:pos:R:3 gdb_42963=T pbc="F F F"
O       -0.07180000       0.00570000       0.15260000
C       -0.06120000       1.20220000       0.02420000
C       -1.27720000       2.07890000      -0.19590000
O       -1.30340000       3.13770000       0.77800000
C       -0.81440000       3.44700000      -0.52150000
C        0.71450000       3.48510000      -0.55330000
O        1.29410000       4.15970000       0.57830000
C        1.64150000       2.90340000       1.20420000
C        1.17230000       2.10260000      -0.04300000
H       -2.23360000       1.65460000      -0.48520000
H       -1.41990000       4.13950000      -1.10010000
H        1.10020000       3.85660000      -1.50810000
H        2.71470000       2.83910000       1.41040000
H        1.07240000       2.72810000       2.12170000
H        1.97470000       1.60230000      -0.58370000
