18
Properties=species:S:1:pos:R:3 gdb_74789=T pbc="F F F"
C       -0.03020000       1.49670000       0.06220000
C       -0.07380000       0.00600000      -0.00840000
C       -0.05420000      -0.79510000      -1.08080000
C        0.05920000      -2.24950000      -0.63450000
C       -0.63120000      -2.18620000       0.74310000
C        0.01700000      -0.88730000       1.22480000
O        1.43290000      -1.15420000       1.48020000
C        2.01810000      -1.98190000       0.57540000
N        1.49610000      -2.55100000      -0.43210000
H        0.88210000       1.83680000       0.56820000
H       -0.05260000       1.94550000      -0.93440000
H       -0.87530000       1.89680000       0.63660000
H        0.00270000      -0.47700000      -2.11550000
H       -0.35880000      -2.97940000      -1.32880000
H       -1.71280000      -2.06320000       0.65090000
H       -0.40950000      -3.04520000       1.38120000
H       -0.36110000      -0.46510000       2.15660000
H        3.07090000      -2.11780000       0.81710000
