17
Properties=species:S:1:pos:R:3 gdb_65951=T pbc="F F F"
N        0.04210000       1.44910000      -0.43780000
C       -0.03140000       0.04640000      -0.05180000
C        0.02460000      -0.24230000       1.48740000
C       -1.17660000      -1.22260000       1.34630000
C       -1.44570000      -0.58860000      -0.01540000
C       -2.67130000       0.01080000      -0.53440000
O       -2.09730000      -1.17830000      -1.11030000
C        0.91350000      -0.80800000      -0.79280000
N        1.67850000      -1.43890000      -1.38820000
H        0.96310000       1.81650000      -0.20990000
H       -0.04770000       1.53410000      -1.44790000
H        0.96090000      -0.64690000       1.87030000
H       -0.24070000       0.66850000       2.02710000
H       -0.85410000      -2.26250000       1.24990000
H       -1.96890000      -1.15930000       2.09350000
H       -3.60670000      -0.13820000       0.00280000
H       -2.62080000       0.90400000      -1.15280000
