20
Properties=species:S:1:pos:R:3 gdb_6484=T pbc="F F F"
C        1.90800000      -0.35620000      -3.32000000
C        1.80850000      -0.67750000      -1.84000000
O        2.79290000      -0.80710000      -1.14770000
C        0.40490000      -0.85780000      -1.26110000
C       -0.03320000      -2.32480000      -1.26520000
C        0.81470000      -3.25280000      -0.41440000
C       -1.51790000      -2.59540000      -1.32320000
C       -0.65300000      -2.88050000      -2.52860000
H        1.36560000      -1.10310000      -3.90990000
H        1.43720000       0.61250000      -3.52530000
H        2.95410000      -0.32680000      -3.62730000
H        0.42590000      -0.48960000      -0.22950000
H       -0.31760000      -0.26040000      -1.82760000
H        0.79710000      -2.94230000       0.63660000
H        0.43840000      -4.27890000      -0.46790000
H        1.86040000      -3.25420000      -0.73460000
H       -1.90040000      -3.43810000      -0.75670000
H       -2.19630000      -1.75010000      -1.37210000
H       -0.76090000      -2.22790000      -3.38880000
H       -0.45160000      -3.91530000      -2.78430000
