14
Properties=species:S:1:pos:R:3 gdb_20366=T pbc="F F F"
C       -0.11730000       1.44670000      -0.08110000
C        1.27280000       0.91590000       0.09300000
C        0.10300000      -0.04950000       0.04470000
C       -0.31500000      -0.74230000       1.26870000
N       -0.79420000      -1.98380000       1.29510000
N       -1.01720000      -2.14270000       2.59570000
N       -0.70980000      -1.09750000       3.34490000
N       -0.25990000      -0.19340000       2.51560000
H       -0.57560000       1.94260000       0.76650000
H       -0.41560000       1.82300000      -1.05290000
H        1.94520000       0.92150000      -0.75720000
H        1.74700000       1.05570000       1.05740000
H       -0.01360000      -0.64830000      -0.85040000
H       -1.39210000      -2.99360000       2.98700000
