25
Properties=species:S:1:pos:R:3 gdb_98263=T pbc="F F F"
C       -0.03310000       1.55250000      -0.09170000
C       -0.10350000       0.04960000       0.16250000
C        0.80720000      -0.43100000       1.28310000
O        1.44070000       0.34140000       1.96860000
C        0.91660000      -1.94790000       1.48150000
C        2.22350000      -2.39310000       0.79140000
C        0.85460000      -2.31300000       2.98320000
C       -0.49540000      -1.89890000       3.58940000
C        1.11610000      -3.80290000       3.24020000
H        0.97690000       1.85220000      -0.38380000
H       -0.72420000       1.84560000      -0.88700000
H       -0.28600000       2.11080000       0.81300000
H       -1.12470000      -0.26150000       0.42810000
H        0.13510000      -0.52580000      -0.74280000
H        0.07460000      -2.42850000       0.96410000
H        3.09030000      -1.98010000       1.31660000
H        2.31200000      -3.48170000       0.77190000
H        2.26350000      -2.04270000      -0.24560000
H        1.63960000      -1.72810000       3.47760000
H       -1.32360000      -2.44030000       3.11530000
H       -0.52660000      -2.12390000       4.66020000
H       -0.67880000      -0.82670000       3.47340000
H        2.12070000      -4.10800000       2.93600000
H        1.01460000      -4.02810000       4.30690000
H        0.39550000      -4.43180000       2.70230000
