19
Properties=species:S:1:pos:R:3 gdb_87576=T pbc="F F F"
C       -0.02130000       1.56030000      -0.03590000
C       -0.08250000       0.06400000       0.12090000
O        1.14960000      -0.66170000      -0.09050000
C        0.59090000      -0.65170000       1.20770000
C        1.31300000      -0.14750000       2.44230000
C        0.30550000      -0.04210000       3.55490000
C        0.85850000      -1.39920000       3.21100000
C        0.20980000      -1.96240000       1.93770000
O       -1.11860000      -2.42120000       1.95520000
H        0.84270000       1.97350000       0.49080000
H        0.05570000       1.83520000      -1.09300000
H       -0.92910000       2.02440000       0.36520000
H       -0.94720000      -0.42670000      -0.32910000
H        2.27590000       0.34510000       2.45750000
H        0.66780000       0.37930000       4.48680000
H       -0.72520000       0.22690000       3.33000000
H        1.41280000      -1.98210000       3.93560000
H        0.80680000      -2.77790000       1.51930000
H       -1.65210000      -1.77430000       2.42920000
