17
Properties=species:S:1:pos:R:3 gdb_37644=T pbc="F F F"
C       -0.05160000       1.56710000      -0.08250000
C        1.49220000       1.45320000       0.01220000
C        2.08810000       1.18110000      -1.34930000
C        2.65950000      -0.17290000      -1.43680000
C        1.88990000      -0.91950000      -0.34560000
C        0.60310000      -0.71970000      -1.17210000
C       -0.02040000       0.03690000       0.02210000
N        1.36210000       0.08650000       0.66670000
N        1.36660000       0.15820000      -2.16340000
H       -0.49640000       2.01750000       0.80690000
H       -0.46560000       2.02380000      -0.98370000
H        2.04870000       2.19900000       0.58580000
H        2.48340000       1.99530000      -1.94890000
H        3.56500000      -0.46170000      -1.95780000
H        2.25320000      -1.85460000       0.07690000
H        0.05450000      -1.49940000      -1.70150000
H       -0.81150000      -0.49450000       0.55800000
