17
Properties=species:S:1:pos:R:3 gdb_32450=T pbc="F F F"
C        0.04190000       1.34490000       0.09240000
O        0.01440000      -0.06600000       0.03720000
C       -1.22780000      -0.61700000       0.01180000
C       -2.46110000      -0.00880000       0.03160000
N       -3.41380000      -1.03340000      -0.01140000
C       -2.78090000      -2.23150000      -0.05600000
O       -3.47640000      -3.38680000      -0.10320000
C       -1.41980000      -2.03670000      -0.04410000
N       -0.49790000      -3.12210000      -0.08340000
H        1.09200000       1.64280000       0.10740000
H       -0.45060000       1.78690000      -0.78510000
H       -0.45640000       1.71730000       0.99850000
H       -2.75980000       1.02270000       0.07080000
H       -4.41010000      -0.91220000      -0.00990000
H       -2.79890000      -4.07920000      -0.12810000
H        0.10980000      -3.12140000       0.73120000
H        0.11540000      -3.05780000      -0.89140000
