14
Properties=species:S:1:pos:R:3 gdb_48048=T pbc="F F F"
O       -0.91700000       1.53720000      -0.32870000
C        0.19250000       1.08280000      -0.37400000
C        1.47590000       1.91270000      -0.21590000
O        2.54640000       1.34050000      -0.27590000
C        1.30970000       3.31960000      -0.00580000
C        1.17460000       4.50850000       0.17630000
C        1.02250000       5.91400000       0.36670000
C        1.91270000       6.61010000       1.35700000
N        2.10250000       6.83730000      -0.06870000
H        0.41850000       0.00770000      -0.53470000
H        0.02300000       6.30810000       0.20810000
H        1.49840000       7.44860000       1.90890000
H        2.62830000       6.00090000       1.90040000
H        2.89140000       6.29150000      -0.40860000
