20
Properties=species:S:1:pos:R:3 gdb_108697=T pbc="F F F"
C        0.31620000       1.29860000       0.18440000
C       -0.27160000      -0.03530000      -0.31410000
C       -1.76020000      -0.09710000      -0.15320000
C       -2.62090000      -0.43920000      -1.14820000
C       -2.40950000      -1.87950000      -1.64480000
N       -3.44990000      -2.28680000      -0.59630000
C       -3.49480000      -1.41460000       0.69450000
C       -2.38710000      -0.46730000       1.18740000
C       -3.97260000      -0.89320000      -0.58690000
H        1.40340000       1.31540000       0.06090000
H       -0.10540000       2.14060000      -0.37270000
H        0.09570000       1.45610000       1.24540000
H       -0.01330000      -0.17040000      -1.37050000
H        0.20270000      -0.85600000       0.24540000
H       -2.84130000      -2.15240000      -2.61260000
H       -1.41010000      -2.31280000      -1.54010000
H       -4.15780000      -1.90310000       1.40280000
H       -1.62020000      -0.93410000       1.81710000
H       -2.84960000       0.32680000       1.79120000
H       -4.97460000      -0.63250000      -0.90970000
