14
Properties=species:S:1:pos:R:3 gdb_33963=T pbc="F F F"
N        0.01970000      -1.16380000      -0.07050000
C        0.05290000      -0.01060000       0.00070000
C        0.06980000       1.42190000       0.14070000
O        0.27970000       2.20030000      -1.03760000
C        1.28270000       2.26490000      -0.02760000
C        1.19720000       3.45940000       0.91600000
C       -0.14790000       3.32450000       1.62480000
O       -1.29070000       3.37330000       0.76720000
C       -0.82820000       2.09550000       1.17830000
H        2.24660000       1.84730000      -0.30760000
H        2.01120000       3.40690000       1.64710000
H        1.28560000       4.40790000       0.37760000
H       -0.28940000       3.75780000       2.61160000
H       -1.49820000       1.49200000       1.78190000
