14
Properties=species:S:1:pos:R:3 gdb_48187=T pbc="F F F"
O       -0.21880000       0.13770000       0.00230000
C       -0.01220000       1.31640000       0.00700000
C        1.41540000       1.88540000      -0.00270000
O        2.42240000       1.23720000      -0.01560000
O        1.35030000       3.23280000       0.00520000
C        2.61500000       3.91390000      -0.00260000
C        2.29310000       5.40980000       0.00800000
C        3.50900000       6.21840000       0.00140000
N        4.47930000       6.84480000      -0.00400000
H       -0.81390000       2.08140000       0.01840000
H        3.19630000       3.61880000       0.87510000
H        3.18060000       3.62780000      -0.89350000
H        1.68580000       5.66480000      -0.86700000
H        1.70150000       5.65570000       0.89620000
