17
Properties=species:S:1:pos:R:3 gdb_105159=T pbc="F F F"
C        0.30410000       0.43740000       1.22060000
C       -0.22680000      -0.46910000       0.10200000
C        0.75210000      -0.59770000      -1.03970000
O        1.99760000      -1.26720000      -0.78610000
C        1.08920000      -1.91090000      -1.67840000
C        0.46450000      -3.13420000      -1.25860000
C       -0.05770000      -4.17120000      -0.94800000
C        0.92080000       0.58510000      -1.95360000
O        0.16700000       1.52220000      -1.99470000
H        1.24720000       0.05010000       1.61710000
H        0.47330000       1.45510000       0.85780000
H       -0.41520000       0.48920000       2.04240000
H       -0.44930000      -1.46560000       0.49160000
H       -1.15580000      -0.05680000      -0.30570000
H        1.41420000      -1.89990000      -2.71960000
H       -0.51650000      -5.08740000      -0.66670000
H        1.82410000       0.51520000      -2.60020000
