17
Properties=species:S:1:pos:R:3 gdb_15114=T pbc="F F F"
C        0.07700000      -1.09760000       0.37200000
C        0.07980000       0.08490000       0.16390000
C        0.04830000       1.51850000      -0.09160000
O        1.35650000       2.05180000      -0.02700000
C        1.38130000       3.44640000      -0.26620000
C        2.80950000       3.91440000      -0.25620000
C        3.12330000       5.27660000       0.24370000
N        3.52460000       4.09050000       1.01430000
H        0.08300000      -2.14330000       0.55690000
H       -0.39780000       1.70990000      -1.08310000
H       -0.60760000       2.01170000       0.64710000
H        0.91240000       3.67590000      -1.23900000
H        0.80200000       3.98090000       0.50840000
H        3.42500000       3.48930000      -1.04570000
H        3.94230000       5.83940000      -0.19430000
H        2.30060000       5.88800000       0.60760000
H        2.88670000       3.94070000       1.79290000
