13
Properties=species:S:1:pos:R:3 gdb_132156=T pbc="F F F"
C       -0.01770000       1.48200000       0.08660000
C       -0.00500000      -0.00680000      -0.04760000
N       -0.10050000      -0.61070000      -1.16780000
C       -0.08350000      -2.02090000      -1.23960000
O       -0.17200000      -2.62090000      -2.28410000
C        0.05080000      -2.68330000       0.06710000
F        0.07620000      -4.00630000       0.10180000
C        0.14520000      -1.96860000       1.19500000
O        0.11990000      -0.60900000       1.17020000
H        0.90660000       1.82680000       0.56080000
H       -0.11790000       1.93180000      -0.89940000
H       -0.84880000       1.79690000       0.72540000
H        0.24600000      -2.37820000       2.19070000
