19
Properties=species:S:1:pos:R:3 gdb_102200=T pbc="F F F"
C        0.52330000      -0.89770000       1.31290000
C        0.01080000      -0.14290000       0.08050000
C        0.77050000      -0.39960000      -1.23620000
C        2.25880000       0.02560000      -1.17800000
C        2.43130000       1.43750000      -0.84530000
N        2.55290000       2.55630000      -0.58290000
C        0.71190000      -1.87630000      -1.69980000
C       -0.65490000      -2.35710000      -1.88630000
N       -1.74110000      -2.72340000      -2.03130000
H        0.46480000      -1.98410000       1.18980000
H        1.55850000      -0.63910000       1.55870000
H       -0.08520000      -0.64210000       2.18470000
H       -1.04190000      -0.39570000      -0.08600000
H        0.03940000       0.93400000       0.27870000
H        0.28970000       0.20470000      -2.01350000
H        2.80200000      -0.57400000      -0.43870000
H        2.73980000      -0.15890000      -2.14560000
H        1.24800000      -1.99330000      -2.64870000
H        1.21300000      -2.52780000      -0.97470000
