19
Properties=species:S:1:pos:R:3 gdb_40409=T pbc="F F F"
C        0.54450000       1.39890000       0.09910000
O        1.02580000       0.15890000      -0.42730000
C       -0.30490000       0.19800000       0.09020000
C       -0.58920000      -0.60340000       1.31930000
C        0.54970000      -1.03640000       2.20170000
C       -0.21950000      -2.08240000       1.41380000
C       -1.35040000      -2.72560000       2.14100000
C       -2.29020000      -1.83980000       2.47870000
C       -1.97240000      -0.45010000       1.96470000
H        1.00520000       1.71410000       1.03390000
H        0.38560000       2.18580000      -0.63670000
H       -1.07660000       0.13830000      -0.68090000
H        1.54320000      -0.79470000       1.84000000
H        0.41960000      -1.01480000       3.27900000
H        0.29220000      -2.59540000       0.60710000
H       -1.36450000      -3.78150000       2.38660000
H       -3.17720000      -2.05260000       3.06430000
H       -1.97740000       0.30230000       2.76370000
H       -2.71900000      -0.11760000       1.22850000
