17
Properties=species:S:1:pos:R:3 gdb_104144=T pbc="F F F"
O        0.00740000       1.29740000      -0.20230000
C       -0.05030000      -0.12410000      -0.15040000
C       -1.51280000      -0.47840000       0.12900000
O       -1.94170000       0.18170000       1.30070000
C       -2.40950000      -0.14570000      -1.09150000
O       -2.42480000      -1.32670000      -1.90840000
C       -2.08200000      -2.42470000      -1.17610000
O       -2.08120000      -3.52680000      -1.63850000
C       -1.72030000      -1.98780000       0.23840000
H        0.92740000       1.57430000      -0.22890000
H        0.28000000      -0.57720000      -1.09660000
H        0.57320000      -0.51730000       0.66450000
H       -1.54540000       1.06290000       1.27020000
H       -3.42420000       0.07870000      -0.74690000
H       -2.03370000       0.68350000      -1.69300000
H       -0.86290000      -2.55230000       0.60920000
H       -2.56780000      -2.18810000       0.90240000
