25
Properties=species:S:1:pos:R:3 gdb_58459=T pbc="F F F"
C       -0.18250000       1.50710000       0.00490000
C        0.04160000      -0.01030000      -0.07850000
C        0.83500000      -0.38800000      -1.33610000
C        0.72210000      -0.54760000       1.18900000
O        2.03300000      -0.00750000       1.35450000
C       -0.08110000      -0.50710000       2.52600000
C        0.46130000      -1.92630000       2.85950000
C       -0.48360000      -2.93970000       3.48480000
C        0.84390000      -2.08440000       1.36060000
H        0.77090000       2.04930000       0.01210000
H       -0.74670000       1.86720000      -0.86090000
H       -0.74060000       1.78650000       0.90520000
H       -0.94460000      -0.49200000      -0.13070000
H        1.84610000       0.02650000      -1.28670000
H        0.92580000      -1.47400000      -1.43950000
H        0.34790000      -0.00510000      -2.23880000
H        1.94160000       0.92750000       1.56620000
H        0.15750000       0.30610000       3.21790000
H       -1.16290000      -0.51690000       2.35220000
H        1.37070000      -1.83930000       3.46090000
H       -1.40190000      -3.03990000       2.89400000
H       -0.01990000      -3.93070000       3.54770000
H       -0.77250000      -2.64350000       4.49980000
H        0.06930000      -2.61540000       0.79750000
H        1.82070000      -2.50980000       1.12280000
