21
Properties=species:S:1:pos:R:3 gdb_77519=T pbc="F F F"
C        0.00320000       1.53340000       0.07140000
C       -0.02640000       0.02720000      -0.01130000
C        0.37360000      -0.79080000      -1.28020000
C       -0.39230000      -1.91640000      -0.54750000
C       -0.80950000      -3.23100000      -1.14150000
O        0.40040000      -2.13240000       0.65290000
C        0.73010000      -0.77880000       1.05100000
C       -1.36110000      -0.81200000      -0.05090000
O       -2.09430000      -1.04750000       1.11430000
H        1.02820000       1.92020000       0.03300000
H       -0.55400000       1.98510000      -0.75560000
H       -0.44970000       1.87930000       1.00740000
H       -0.13140000      -0.44880000      -2.18630000
H        1.43710000      -0.95650000      -1.46720000
H        0.06510000      -3.84400000      -1.37890000
H       -1.43470000      -3.78810000      -0.43650000
H       -1.38340000      -3.07090000      -2.05840000
H        1.81550000      -0.62820000       1.02000000
H        0.37260000      -0.58760000       2.06990000
H       -2.04420000      -0.44690000      -0.82180000
H       -1.58520000      -1.69140000       1.62490000
