21
Properties=species:S:1:pos:R:3 gdb_80573=T pbc="F F F"
C        0.04800000       1.57680000      -0.06130000
C        0.05250000       0.04990000      -0.05110000
C        0.80060000      -0.59550000      -1.24830000
C        1.24590000      -1.97050000      -0.75810000
C        2.51240000      -2.03270000       0.06540000
O        3.37980000      -0.93870000       0.01830000
C        1.18950000      -1.96590000       0.76900000
O        0.85180000      -3.09170000       1.52470000
C        0.69720000      -0.58340000       1.20750000
H        1.07160000       1.96650000      -0.01740000
H       -0.41870000       1.96810000      -0.97180000
H       -0.50200000       1.98330000       0.79450000
H       -0.98750000      -0.30330000      -0.09230000
H        0.15800000      -0.67350000      -2.12990000
H        1.66640000       0.01420000      -1.52830000
H        0.98670000      -2.85900000      -1.32330000
H        2.99710000      -3.00840000       0.10120000
H        3.81170000      -0.86330000       0.87580000
H       -0.09610000      -3.24030000       1.43280000
H        1.52810000       0.03790000       1.56400000
H       -0.00890000      -0.68380000       2.03710000
