19
Properties=species:S:1:pos:R:3 gdb_95173=T pbc="F F F"
O       -0.11180000       1.42840000       0.07790000
C        0.02240000       0.01730000       0.00390000
C        0.77120000      -0.53500000       1.22160000
O        0.97440000      -1.93380000       1.11960000
C       -0.17840000      -2.68180000       0.84590000
C       -1.46050000      -2.55540000       1.64140000
C       -1.40440000      -2.07330000       0.21060000
O       -2.14510000      -2.85970000      -0.68610000
C       -1.38930000      -0.56940000      -0.06800000
H        0.76570000       1.81970000       0.01530000
H        0.58560000      -0.28090000      -0.89520000
H        1.77190000      -0.09520000       1.29070000
H        0.22570000      -0.26530000       2.13960000
H        0.10160000      -3.68080000       0.52990000
H       -2.00640000      -3.47240000       1.83140000
H       -1.53590000      -1.80580000       2.42160000
H       -1.69020000      -2.85110000      -1.53590000
H       -2.02020000      -0.02730000       0.64540000
H       -1.81550000      -0.39190000      -1.05960000
