23
Properties=species:S:1:pos:R:3 gdb_68235=T pbc="F F F"
C       -0.06380000       1.53240000       0.00960000
C        0.04920000       0.01980000       0.00250000
C        0.98130000      -0.69710000      -1.02940000
C        0.95760000      -1.86070000       0.00820000
C        0.94190000      -0.70980000       1.06000000
C       -0.46460000      -2.56750000      -0.02290000
C       -1.36290000      -1.85550000      -1.08080000
C       -1.37660000      -0.70310000      -0.02870000
C       -1.40220000      -1.86810000       1.00910000
H        0.92450000       2.00400000       0.03100000
H       -0.58980000       1.89500000      -0.88180000
H       -0.62290000       1.88430000       0.88500000
H        0.65680000      -0.85590000      -2.05620000
H        1.96390000      -0.21720000      -1.05350000
H        1.77630000      -2.58260000       0.01920000
H        1.92280000      -0.23050000       1.12700000
H        0.57890000      -0.88100000       2.07180000
H       -0.38470000      -3.65650000      -0.02800000
H       -1.00220000      -1.68370000      -2.09270000
H       -2.34350000      -2.33460000      -1.14430000
H       -2.19230000       0.02400000      -0.03960000
H       -2.38430000      -2.34770000       1.02990000
H       -1.07970000      -1.70870000       2.03590000
