17
Properties=species:S:1:pos:R:3 gdb_127761=T pbc="F F F"
C       -0.11580000       1.45400000      -0.02660000
N       -0.03340000       0.01500000       0.08970000
N       -0.06140000      -0.74940000      -1.03310000
N        0.03160000      -2.01740000      -0.67820000
C        0.10010000      -2.04420000       0.66650000
C        0.04690000      -0.77860000       1.18030000
C        0.21060000      -0.79280000       2.66620000
C       -0.01530000      -2.32760000       2.92590000
N        0.30460000      -3.02590000       1.64660000
H        0.77910000       1.92860000       0.38710000
H       -0.19360000       1.68730000      -1.08850000
H       -0.99720000       1.83600000       0.49710000
H        1.21930000      -0.48420000       2.97100000
H       -0.50230000      -0.18440000       3.23030000
H        0.61490000      -2.70310000       3.73570000
H       -1.06550000      -2.48730000       3.20670000
H       -0.21920000      -3.88180000       1.51380000
