22
Properties=species:S:1:pos:R:3 gdb_120776=T pbc="F F F"
O       -0.05550000       1.42790000       0.08630000
C       -0.05470000       0.02390000       0.30280000
C       -1.31580000      -0.54870000      -0.33430000
C       -1.39830000      -2.05380000      -0.19870000
C       -1.89790000      -2.69100000       1.08260000
C       -2.72540000      -2.77290000      -0.17270000
N       -3.93110000      -1.99310000      -0.22310000
C       -4.73480000      -2.11060000      -1.43600000
C       -5.18770000      -2.73280000      -0.16060000
H        0.72980000       1.79560000       0.50140000
H        0.83730000      -0.44620000      -0.14460000
H       -0.04190000      -0.21620000       1.37800000
H       -2.19380000      -0.08570000       0.12410000
H       -1.32690000      -0.26330000      -1.39360000
H       -0.60290000      -2.59520000      -0.70680000
H       -1.41740000      -3.58990000       1.45300000
H       -2.26860000      -2.02190000       1.85200000
H       -2.76400000      -3.74280000      -0.67820000
H       -5.18750000      -1.19080000      -1.79500000
H       -4.38040000      -2.78000000      -2.21810000
H       -5.13530000      -3.81810000      -0.09030000
H       -5.97770000      -2.27570000       0.42850000
