25
Properties=species:S:1:pos:R:3 gdb_89410=T pbc="F F F"
C       -0.01630000       1.57120000      -0.06830000
C        0.10510000       0.04920000      -0.00350000
C        0.81110000      -0.59120000      -1.22340000
C        1.25340000      -1.98360000      -0.75020000
C        0.75150000      -3.19480000      -1.50110000
C        2.58490000      -2.02560000      -0.04620000
C        1.31070000      -1.92180000       0.76510000
C        0.82590000      -0.54710000       1.25090000
C        1.92760000       0.33450000       1.85630000
H        0.96570000       2.05330000      -0.11770000
H       -0.57710000       1.87700000      -0.95820000
H       -0.54200000       1.97230000       0.80520000
H       -0.91110000      -0.36720000       0.01440000
H        0.13670000      -0.65410000      -2.08370000
H        1.66830000       0.01570000      -1.54310000
H        1.14930000      -3.22660000      -2.52280000
H        1.05160000      -4.12250000      -1.00250000
H       -0.34290000      -3.19490000      -1.57330000
H        3.10760000      -2.97710000      -0.01370000
H        3.24550000      -1.16760000      -0.12160000
H        1.03690000      -2.79170000       1.35440000
H        0.07920000      -0.70560000       2.03800000
H        2.68820000       0.61840000       1.12230000
H        1.51310000       1.25830000       2.27160000
H        2.43750000      -0.19640000       2.66660000
