16
Properties=species:S:1:pos:R:3 gdb_44512=T pbc="F F F"
O        0.01730000      -0.04390000       0.04780000
C       -0.03000000       1.15750000       0.01360000
N       -1.17050000       1.91190000       0.03750000
C       -1.12000000       3.34840000      -0.00770000
C       -0.10000000       3.95400000      -1.02240000
C       -0.03240000       5.20270000      -0.10830000
C       -0.02140000       4.01120000       0.88150000
C        0.98020000       3.32640000      -0.09370000
O        1.10730000       1.91180000      -0.05640000
H       -2.03960000       1.40930000       0.08920000
H       -2.12380000       3.77480000       0.02090000
H       -0.14340000       3.90830000      -2.11010000
H        0.88180000       5.79750000      -0.16390000
H       -0.92170000       5.83650000      -0.09060000
H        0.02490000       4.03090000       1.96990000
H        1.99480000       3.72210000      -0.14740000
