16
Properties=species:S:1:pos:R:3 gdb_83720=T pbc="F F F"
N       -0.02430000       1.49750000       0.14540000
C       -0.03400000       0.05470000      -0.01080000
C       -1.42730000      -0.54630000      -0.06670000
O       -2.33640000       0.21050000      -0.90230000
C       -2.48360000      -0.89930000      -1.82340000
C       -1.35080000      -1.66660000      -1.12860000
O       -0.09850000      -1.52590000      -1.80200000
C        0.62140000      -0.47600000      -1.30090000
O        1.61950000      -0.07480000      -1.82120000
H        0.89510000       1.84340000      -0.11850000
H       -0.68670000       1.89050000      -0.51900000
H        0.51710000      -0.40450000       0.82300000
H       -1.86790000      -0.78050000       0.90530000
H       -3.47090000      -1.36790000      -1.73410000
H       -2.29260000      -0.61510000      -2.86230000
H       -1.49780000      -2.71250000      -0.86270000
