22
Properties=species:S:1:pos:R:3 gdb_116326=T pbc="F F F"
C        0.01720000       1.38560000       0.02980000
O       -0.13930000      -0.00640000      -0.10720000
C        0.62350000      -0.58910000      -1.15420000
C        2.12250000      -0.69490000      -0.83880000
C        2.84460000      -1.45430000      -1.96110000
C        2.37880000      -2.91720000      -2.07290000
C        0.87370000      -3.07910000      -1.89590000
N        0.38590000      -3.02650000      -0.50620000
C        0.02000000      -1.94710000      -1.43390000
H        1.02380000       1.67090000       0.36870000
H       -0.18840000       1.91460000      -0.91530000
H       -0.70480000       1.71810000       0.78030000
H        0.50180000       0.02400000      -2.06690000
H        2.55140000       0.30650000      -0.73160000
H        2.23880000      -1.21370000       0.11800000
H        2.65310000      -0.93980000      -2.91280000
H        3.92830000      -1.42090000      -1.80730000
H        2.67710000      -3.32370000      -3.04550000
H        2.87690000      -3.52610000      -1.30950000
H        0.39770000      -3.80150000      -2.55580000
H       -0.40110000      -3.65520000      -0.37400000
H       -1.01010000      -1.91080000      -1.78240000
