18
Properties=species:S:1:pos:R:3 gdb_114030=T pbc="F F F"
O       -0.40470000       0.94450000      -1.17040000
C       -0.06960000       0.10470000      -0.08050000
C       -1.25770000      -0.72650000       0.34000000
O       -1.57550000      -1.84620000      -0.50560000
C       -1.20410000      -2.10410000       0.85500000
C        0.06430000      -2.88930000       1.08440000
O       -0.18260000      -4.29300000       1.03250000
C       -0.30980000      -4.83450000      -0.20200000
N       -0.58680000      -6.05900000      -0.31690000
H       -0.69780000       0.37340000      -1.88950000
H        0.78950000      -0.53770000      -0.31720000
H        0.22360000       0.76980000       0.73910000
H       -2.12990000      -0.12980000       0.61180000
H       -2.03330000      -2.43660000       1.48140000
H        0.83730000      -2.60800000       0.36150000
H        0.44560000      -2.70120000       2.09230000
H       -0.14780000      -4.11580000      -1.01460000
H       -0.63160000      -6.31240000      -1.30170000
