22
Properties=species:S:1:pos:R:3 gdb_88426=T pbc="F F F"
C       -0.44190000       1.48460000       0.07440000
C        0.05720000       0.06050000       0.01930000
N        1.49820000      -0.16880000      -0.21370000
C        0.89610000      -0.58960000       1.06720000
C        1.45370000       0.12120000       2.27230000
O        2.07970000       1.33520000       1.95890000
C        0.73660000       0.10260000       3.59050000
C        2.04480000      -0.65490000       3.43620000
C        2.09090000      -2.16360000       3.53000000
H       -0.53950000       1.89580000      -0.93630000
H       -1.43010000       1.51750000       0.54600000
H        0.23590000       2.11500000       0.65030000
H       -0.61120000      -0.62310000      -0.50470000
H        1.66190000      -0.95790000      -0.83070000
H        0.72910000      -1.65400000       1.21010000
H        2.44300000       1.20100000       1.06890000
H        0.73640000       1.02660000       4.15800000
H       -0.17800000      -0.47860000       3.66680000
H        2.90640000      -0.14760000       3.86170000
H        1.17540000      -2.62740000       3.14850000
H        2.93570000      -2.58040000       2.96960000
H        2.19610000      -2.48200000       4.57340000
