19
Properties=species:S:1:pos:R:3 gdb_97252=T pbc="F F F"
C       -0.12270000       1.47460000      -0.85280000
N       -0.00030000       0.08000000      -0.47490000
C       -0.89650000      -0.44280000       0.26570000
O       -1.98350000       0.30870000       0.65240000
C       -2.72890000      -0.03870000       1.80740000
C       -3.59630000      -1.28150000       1.61640000
N       -2.83670000      -2.49470000       1.83100000
C       -1.60400000      -2.70250000       1.27060000
C       -0.76790000      -1.84530000       0.64530000
H        0.86080000       1.84880000      -1.15260000
H       -0.79300000       1.59030000      -1.71660000
H       -0.51940000       2.11280000      -0.05250000
H       -2.07270000      -0.16860000       2.67700000
H       -3.37590000       0.82360000       1.98940000
H       -4.41490000      -1.26310000       2.34370000
H       -4.03910000      -1.23290000       0.60870000
H       -3.37140000      -3.32340000       2.03100000
H       -1.25490000      -3.72250000       1.40530000
H        0.17710000      -2.25760000       0.31610000
