12
Properties=species:S:1:pos:R:3 gdb_20398=T pbc="F F F"
C        0.04200000       1.44010000      -0.09110000
C        1.56930000       1.65660000       0.07400000
C        1.93950000       0.32980000       0.67080000
C        0.84570000      -0.63940000       0.55930000
O       -0.21540000       0.03250000       0.01110000
O        0.80800000      -1.80160000       0.84860000
N        4.10470000      -0.29450000       1.57710000
N        3.09350000      -0.00160000       1.15420000
H       -0.51780000       1.95050000       0.69940000
H       -0.32740000       1.77910000      -1.06070000
H        2.05780000       1.83090000      -0.89200000
H        1.78660000       2.51210000       0.71950000
