21
Properties=species:S:1:pos:R:3 gdb_82449=T pbc="F F F"
C       -0.01590000       1.60150000      -0.06910000
C        0.09640000       0.08320000       0.01190000
C        1.12820000      -0.70330000      -0.85530000
C        2.52530000      -0.12840000      -0.48290000
C        2.26320000      -0.73910000       0.89010000
O        3.18960000      -1.00790000       1.87990000
C        1.27610000      -1.72970000       0.33960000
C        0.75090000      -0.60350000       1.21550000
C        0.25000000      -0.66850000       2.62760000
H        0.93780000       2.09870000       0.12990000
H       -0.36000000       1.91870000      -1.06020000
H       -0.73980000       1.97560000       0.66370000
H       -0.89380000      -0.36480000      -0.14400000
H        0.90300000      -0.96240000      -1.88750000
H        3.32340000      -0.67300000      -0.99600000
H        2.69290000       0.95000000      -0.58330000
H        3.31400000      -0.21020000       2.40670000
H        1.20790000      -2.80510000       0.41670000
H        0.90840000      -1.28740000       3.24500000
H        0.20690000       0.32900000       3.08330000
H       -0.75850000      -1.09460000       2.67620000
