19
Properties=species:S:1:pos:R:3 gdb_118599=T pbc="F F F"
C        0.13010000       1.40640000      -0.04770000
C       -0.00340000      -0.11780000       0.00970000
C       -1.46540000      -0.57200000       0.04640000
C       -1.62250000      -2.10830000       0.07940000
N       -1.05080000      -2.72280000       1.27020000
C        0.01150000      -3.57800000       1.20150000
O        0.60790000      -3.85870000       0.18600000
C       -3.04070000      -2.48360000      -0.04700000
N       -4.16240000      -2.74990000      -0.12410000
H        1.18140000       1.70750000      -0.07220000
H       -0.35500000       1.81520000      -0.94070000
H       -0.33190000       1.87960000       0.82570000
H        0.49400000      -0.56840000      -0.85780000
H        0.51950000      -0.50090000       0.89330000
H       -1.97800000      -0.14310000       0.91690000
H       -1.99760000      -0.20150000      -0.83750000
H       -1.07170000      -2.54850000      -0.75940000
H       -1.51490000      -2.58800000       2.15520000
H        0.27660000      -3.98240000       2.19640000
