15
Properties=species:S:1:pos:R:3 gdb_104976=T pbc="F F F"
O       -0.02170000       1.51420000       0.43750000
C       -0.22270000       0.16070000       0.77420000
C       -1.43360000      -0.46880000       0.08810000
C       -1.27780000      -1.55340000      -0.89870000
O       -1.67230000      -1.81960000       0.44890000
C       -2.67370000       0.39800000      -0.01580000
O       -3.68210000       0.21380000       0.61840000
C       -2.66510000       1.53230000      -1.05180000
O       -1.75500000       1.74710000      -1.81120000
H       -0.00010000       1.58880000      -0.52470000
H        0.65800000      -0.46660000       0.57060000
H       -0.40140000       0.13470000       1.85460000
H       -2.04750000      -1.72550000      -1.64980000
H       -0.27360000      -1.87320000      -1.17340000
H       -3.61260000       2.10810000      -1.05800000
