21
Properties=species:S:1:pos:R:3 gdb_63145=T pbc="F F F"
C       -0.11510000       1.57650000      -0.02370000
C        0.03140000       0.06280000       0.01160000
O       -1.28300000      -0.46340000      -0.07400000
C        1.02300000      -0.56690000      -1.02020000
C        2.39160000      -0.01970000      -0.55960000
C        2.25580000      -0.04830000       1.00130000
C        0.81740000      -0.54940000       1.19280000
O        0.76540000      -1.95360000       0.86810000
C        0.95450000      -2.03530000      -0.57010000
H        0.84230000       2.09940000      -0.01030000
H       -0.65300000       1.86830000      -0.93070000
H       -0.70720000       1.91070000       0.83330000
H       -1.25610000      -1.33810000       0.33340000
H        0.77800000      -0.40950000      -2.07120000
H        3.21590000      -0.64300000      -0.91700000
H        2.56920000       0.99200000      -0.93240000
H        2.95880000      -0.73720000       1.47470000
H        2.40390000       0.93830000       1.44970000
H        0.38790000      -0.42060000       2.18760000
H        0.10840000      -2.57460000      -1.01010000
H        1.87320000      -2.59120000      -0.79000000
