18
Properties=species:S:1:pos:R:3 gdb_100453=T pbc="F F F"
C       -0.49740000       0.12860000      -0.58060000
O       -0.48770000      -0.07450000       0.81730000
C        0.80020000      -0.32550000       1.35470000
C        0.67250000      -0.27420000       2.87890000
C        1.35080000      -1.61280000       0.90580000
C        1.80350000      -2.67150000       0.54630000
C        2.41520000      -3.93190000       0.14790000
N        1.57190000      -4.76110000      -0.53580000
O        3.57410000      -4.20580000       0.39140000
H       -0.14820000      -0.75910000      -1.12600000
H       -1.53110000       0.33870000      -0.86370000
H        0.13310000       0.98400000      -0.86880000
H        1.49440000       0.46730000       1.02520000
H       -0.01760000      -1.04830000       3.22240000
H        1.64550000      -0.43350000       3.34900000
H        0.28290000       0.70280000       3.17430000
H        0.59080000      -4.55690000      -0.61530000
H        1.90430000      -5.68300000      -0.76790000
