23
Properties=species:S:1:pos:R:3 gdb_42101=T pbc="F F F"
C        0.07440000       1.61290000      -0.14300000
C        1.58670000       1.95800000       0.00330000
C        2.26120000       0.66920000       0.52370000
C        1.34240000      -0.47990000       0.04910000
C       -0.05710000       0.12370000       0.25450000
C        1.65750000      -0.90210000      -1.40490000
C        2.78870000      -1.92860000      -1.22600000
O        2.68490000      -2.43340000       0.10700000
C        1.58810000      -1.81160000       0.76520000
H       -0.55740000       2.25200000       0.47960000
H       -0.25370000       1.76470000      -1.17570000
H        2.00570000       2.24890000      -0.96500000
H        1.75770000       2.80170000       0.67740000
H        3.29540000       0.56260000       0.18370000
H        2.28550000       0.67390000       1.62010000
H       -0.32680000       0.04120000       1.31520000
H       -0.83060000      -0.40350000      -0.31250000
H        0.77730000      -1.37570000      -1.85360000
H        1.95000000      -0.06870000      -2.04900000
H        2.71490000      -2.75710000      -1.94180000
H        3.77940000      -1.47040000      -1.34980000
H        1.84760000      -1.68800000       1.82260000
H        0.69120000      -2.45180000       0.70920000
