20
Properties=species:S:1:pos:R:3 gdb_120772=T pbc="F F F"
C        0.29330000       1.30530000      -0.16360000
O        0.54590000      -0.08000000      -0.19580000
C        0.06380000      -0.69550000      -1.37070000
C        0.35260000      -2.17250000      -1.23950000
O        0.06260000      -2.99940000      -2.37490000
C        1.42910000      -2.87320000      -1.95640000
C        2.35930000      -2.20350000      -2.92520000
C        2.54090000      -2.78800000      -4.27780000
N        1.81570000      -1.51630000      -4.10380000
H        0.78050000       1.82900000      -1.00070000
H       -0.78570000       1.52340000      -0.20390000
H        0.69680000       1.68850000       0.77670000
H       -1.02580000      -0.54700000      -1.47080000
H        0.54130000      -0.27270000      -2.26550000
H        0.02330000      -2.59240000      -0.28830000
H        1.83140000      -3.77150000      -1.48400000
H        3.20350000      -1.69990000      -2.45810000
H        3.50020000      -2.70900000      -4.78070000
H        1.96380000      -3.67570000      -4.52390000
H        0.81730000      -1.71920000      -4.13740000
