15
Properties=species:S:1:pos:R:3 gdb_2076=T pbc="F F F"
O        0.00260000      -0.06710000      -0.02040000
C       -0.01390000       1.14100000      -0.00590000
C       -1.29730000       1.95860000       0.00710000
C       -1.22680000       3.08120000      -1.04720000
O       -0.06340000       3.86950000      -0.88900000
C        1.11680000       3.11350000      -1.07860000
C        1.24640000       1.99370000      -0.02700000
H       -2.15240000       1.29910000      -0.16080000
H       -1.40040000       2.42100000       0.99720000
H       -1.25580000       2.64220000      -2.05840000
H       -2.07930000       3.75840000      -0.94980000
H        1.13080000       2.67520000      -2.09040000
H        1.95250000       3.81410000      -1.00390000
H        1.36320000       2.45910000       0.96010000
H        2.11460000       1.35800000      -0.21800000
