20
Properties=species:S:1:pos:R:3 gdb_40673=T pbc="F F F"
C       -0.23390000       1.02110000      -0.56270000
C        0.94170000       1.24750000       0.36430000
C        0.42180000      -0.14150000       0.15480000
N       -0.14820000      -0.88390000       1.25290000
C       -1.32890000      -0.38840000       1.96240000
C       -1.40880000      -1.56780000       1.07080000
C       -2.23310000      -1.76280000      -0.20300000
O       -2.47710000      -3.14020000       0.15510000
C       -1.66980000      -3.04260000       1.35170000
H       -1.20480000       1.37380000      -0.23370000
H       -0.07850000       1.10460000      -1.63300000
H        1.90390000       1.51550000      -0.05720000
H        0.72960000       1.71060000       1.32250000
H        1.02990000      -0.79250000      -0.46680000
H       -1.30320000      -0.50660000       3.04310000
H       -1.81600000       0.52340000       1.62040000
H       -3.16270000      -1.18500000      -0.28050000
H       -1.67400000      -1.67070000      -1.14290000
H       -0.77890000      -3.68210000       1.30960000
H       -2.24540000      -3.27520000       2.25640000
