10
Properties=species:S:1:pos:R:3 gdb_4231=T pbc="F F F"
C       -0.22080000       1.46920000       0.02730000
C        0.20930000       0.02520000       0.06140000
O        0.61410000      -0.56400000       1.02570000
C        0.09750000      -0.71780000      -1.30080000
F       -1.17430000      -0.68970000      -1.73170000
F        0.85300000      -0.09680000      -2.22150000
F        0.48810000      -1.97770000      -1.20930000
H        0.38330000       2.01870000      -0.70190000
H       -1.26170000       1.53810000      -0.30490000
H       -0.11030000       1.90910000       1.01810000
