10
Properties=species:S:1:pos:R:3 gdb_21695=T pbc="F F F"
N        0.06530000       1.35080000       0.14200000
C        0.02440000      -0.00720000       0.03410000
N       -1.07520000      -0.72060000       0.01170000
O       -0.65150000      -2.03870000      -0.02970000
N        0.68640000      -2.14260000      -0.04440000
C        1.14070000      -0.91190000      -0.00520000
C        2.51670000      -0.57390000      -0.01140000
N        3.61600000      -0.21300000      -0.02110000
H        0.89670000       1.80760000      -0.19920000
H       -0.79560000       1.83580000      -0.05960000
