18
Properties=species:S:1:pos:R:3 gdb_36713=T pbc="F F F"
N       -0.15180000      -0.13510000       1.35950000
C       -0.10790000       0.58420000       0.45630000
C       -0.06180000       1.50110000      -0.70340000
O        1.18310000       2.10600000      -0.91260000
C        1.51740000       3.16150000      -0.01160000
C        2.12610000       2.70430000       1.34310000
C        3.20770000       3.72930000       1.58380000
C        3.45900000       4.46000000       0.49880000
C        2.59150000       4.05720000      -0.66760000
H       -0.28900000       0.91910000      -1.60250000
H       -0.86270000       2.24650000      -0.57630000
H        0.61240000       3.75670000       0.18050000
H        1.38520000       2.65500000       2.14710000
H        2.54740000       1.69530000       1.24290000
H        3.72700000       3.81370000       2.53180000
H        4.21490000       5.23330000       0.42310000
H        3.15400000       3.47020000      -1.40620000
H        2.15330000       4.90420000      -1.20590000
