19
Properties=species:S:1:pos:R:3 gdb_43151=T pbc="F F F"
O        0.00230000      -0.02820000      -0.00260000
C       -0.01300000       1.16500000       0.04020000
C       -1.08510000       2.27780000      -0.00870000
C       -0.80560000       3.00140000       1.32930000
C        0.76810000       3.02240000       1.30590000
C        1.02700000       2.30610000      -0.04010000
C       -0.05150000       2.95230000      -0.94320000
C       -0.07450000       3.01760000      -2.43250000
C       -0.07920000       4.29300000      -1.60090000
H       -2.11550000       2.08780000      -0.30270000
H       -1.22930000       4.00870000       1.33490000
H       -1.20800000       2.45730000       2.18770000
H        1.16460000       4.04070000       1.29940000
H        1.21020000       2.48960000       2.15180000
H        2.05300000       2.14360000      -0.36460000
H        0.83200000       2.77050000      -2.97580000
H       -0.98980000       2.74610000      -2.94880000
H       -0.99780000       4.87010000      -1.56170000
H        0.82430000       4.89450000      -1.58880000
