17
Properties=species:S:1:pos:R:3 gdb_11900=T pbc="F F F"
C       -0.14780000       1.43620000       0.11120000
C        0.01780000      -0.03600000      -0.04550000
N       -0.18270000      -0.71230000      -1.10320000
C        0.11140000      -2.11100000      -0.76620000
C        0.52020000      -2.06940000       0.71070000
C        0.15810000      -3.07780000       1.75130000
C        1.61040000      -2.87060000       1.34340000
O        0.42720000      -0.68980000       1.08070000
H        0.79840000       1.89440000       0.41590000
H       -0.47750000       1.86920000      -0.83250000
H       -0.88190000       1.65460000       0.89310000
H       -0.77410000      -2.73450000      -0.93910000
H        0.91050000      -2.49430000      -1.41220000
H       -0.14260000      -2.70530000       2.72410000
H       -0.35140000      -3.98070000       1.42950000
H        2.09790000      -3.63120000       0.74170000
H        2.25720000      -2.36290000       2.05020000
