14
Properties=species:S:1:pos:R:3 gdb_75670=T pbc="F F F"
N       -0.11170000       1.58390000      -0.00390000
C       -0.10980000       0.14170000      -0.05880000
C        0.14220000      -0.57410000       1.28200000
O        1.01250000      -0.55100000       2.09050000
N       -1.07300000      -1.37410000       1.25270000
C       -2.17420000      -0.36350000       1.23840000
C       -1.46670000      -0.60270000      -0.03110000
C       -2.04340000      -1.26840000      -1.15670000
N       -2.49870000      -1.76520000      -2.09670000
H        0.65050000       1.90090000       0.58710000
H        0.02410000       1.99320000      -0.92160000
H        0.53220000      -0.30340000      -0.83310000
H       -3.14900000      -0.81760000       1.37400000
H       -2.02190000       0.59000000       1.73600000
