21
Properties=species:S:1:pos:R:3 gdb_66610=T pbc="F F F"
C        0.00730000       1.46560000       0.03930000
C        0.01110000      -0.03820000       0.00550000
C       -0.87290000      -0.87170000       0.92450000
C        0.62240000      -0.87240000       1.12410000
C        0.76830000      -2.21550000       0.38390000
C        1.34230000      -1.81320000      -0.98430000
C        0.18880000      -0.84030000      -1.32860000
C       -1.01560000      -1.81210000      -1.29900000
C       -0.82090000      -2.21480000       0.17180000
H        0.95030000       1.87950000      -0.33740000
H       -0.80310000       1.88030000      -0.57200000
H       -0.12920000       1.83630000       1.06110000
H       -1.66690000      -0.46880000       1.54280000
H        1.22680000      -0.47020000       1.92900000
H        1.20620000      -3.06110000       0.91110000
H        2.31410000      -1.31790000      -0.88750000
H        1.43150000      -2.63620000      -1.70170000
H        0.30830000      -0.22740000      -2.22250000
H       -1.97830000      -1.31590000      -1.46040000
H       -0.91430000      -2.63510000      -2.01470000
H       -1.38240000      -3.05990000       0.56570000
