15
Properties=species:S:1:pos:R:3 gdb_32060=T pbc="F F F"
O        0.12930000       1.43550000      -0.07710000
C        0.02670000       0.03360000       0.07700000
C       -1.38090000      -0.45560000      -0.09940000
C       -1.82240000      -1.38730000      -0.96350000
N       -3.15410000      -1.77520000      -1.00510000
C       -3.96320000      -1.18060000      -0.20230000
C       -3.58200000      -0.12570000       0.74450000
N       -4.30950000       0.53800000       1.54250000
O       -2.22990000       0.16630000       0.75820000
H       -0.46080000       1.83920000       0.56960000
H        0.66410000      -0.42350000      -0.68360000
H        0.39340000      -0.29120000       1.06460000
H       -1.14650000      -1.87290000      -1.65490000
H       -5.01470000      -1.46510000      -0.21180000
H       -5.28090000       0.24250000       1.45820000
