21
Properties=species:S:1:pos:R:3 gdb_39262=T pbc="F F F"
C       -0.05300000       1.45290000       0.03190000
C        1.32450000       0.78900000      -0.04440000
C        2.22570000       0.49040000      -1.22660000
C        2.36640000      -1.06540000      -1.32040000
C        1.03100000      -1.81050000      -1.00020000
C        0.76200000      -2.04660000       0.52600000
O       -0.08420000      -0.96250000       0.98460000
C        0.05840000      -0.02520000      -0.05630000
C       -0.13110000      -0.84930000      -1.31520000
H       -0.29540000       1.90880000       0.98550000
H       -0.46760000       1.97130000      -0.82830000
H        1.82420000       0.77360000       0.92100000
H        1.80670000       0.88660000      -2.15710000
H        3.21290000       0.95070000      -1.12090000
H        2.70890000      -1.34250000      -2.32410000
H        3.14550000      -1.40190000      -0.62580000
H        0.99680000      -2.76060000      -1.53900000
H        0.22470000      -2.98330000       0.70450000
H        1.69420000      -2.06270000       1.10570000
H       -0.01950000      -0.31050000      -2.25680000
H       -1.10750000      -1.34200000      -1.30330000
