20
Properties=species:S:1:pos:R:3 gdb_41792=T pbc="F F F"
C       -0.08410000       1.55630000      -0.20070000
C        1.37840000       2.07510000      -0.21270000
C        2.27250000       0.84410000       0.05000000
C        1.43050000      -0.34020000      -0.42760000
C        0.00560000       0.02090000       0.02330000
C       -0.24200000      -0.38170000       1.48420000
N        0.61250000       0.12970000       2.53600000
C        1.79630000       0.55260000       2.45040000
O        2.66970000       0.75550000       1.42850000
H       -0.68300000       2.03420000       0.57960000
H       -0.57410000       1.77330000      -1.15390000
H        1.63370000       2.49920000      -1.18840000
H        1.57280000       2.84950000       0.53280000
H        3.23030000       0.91410000      -0.46950000
H        1.48900000      -0.38420000      -1.52160000
H        1.79130000      -1.29580000      -0.03580000
H       -0.74560000      -0.50400000      -0.57680000
H       -1.27170000      -0.11140000       1.75190000
H       -0.20070000      -1.47920000       1.55390000
H        2.31830000       0.81650000       3.37190000
