15
Properties=species:S:1:pos:R:3 gdb_49892=T pbc="F F F"
O       -0.77420000       0.93750000       0.69110000
C        0.15100000       0.90270000      -0.07530000
C        1.35080000       1.84380000      -0.01600000
C        1.40740000       2.63040000       1.30030000
C        2.73470000       3.33810000       1.48700000
O        2.90680000       4.34710000       2.12820000
N        3.79660000       2.66710000       0.88640000
C        3.64330000       1.51570000       0.12380000
N        2.54560000       1.05970000      -0.32180000
H        0.21260000       0.16780000      -0.90560000
H        1.20510000       2.54490000      -0.85840000
H        0.60200000       3.36120000       1.37660000
H        1.28290000       1.93890000       2.14360000
H        4.72040000       3.01920000       1.09370000
H        4.57550000       0.99750000      -0.09730000
