15
Properties=species:S:1:pos:R:3 gdb_45914=T pbc="F F F"
N       -0.15510000       1.29280000      -0.41900000
C       -0.00970000       0.10320000       0.00900000
C       -1.22960000      -0.79580000       0.04150000
N       -1.10940000      -1.90120000       0.97880000
C        0.05280000      -2.48780000       1.36240000
O        0.11620000      -3.53060000       1.98380000
C        1.32380000      -1.73110000       1.00630000
N        2.47970000      -2.17080000       1.28930000
N        1.17610000      -0.49550000       0.39190000
H        0.73220000       1.79730000      -0.45820000
H       -2.08760000      -0.17550000       0.30540000
H       -1.39690000      -1.16590000      -0.98060000
H       -1.94150000      -2.43330000       1.19210000
H        2.36380000      -3.07200000       1.75900000
H        2.03560000       0.02840000       0.28490000
