20
Properties=species:S:1:pos:R:3 gdb_75143=T pbc="F F F"
C        0.01630000       1.46980000       0.09980000
C       -0.00830000      -0.02300000      -0.04800000
N        0.00360000      -0.59190000      -1.18120000
C        0.02060000      -2.05070000      -1.25030000
C        0.44070000      -2.73960000       0.05830000
C        0.14210000      -4.23310000       0.04580000
O        1.84850000      -2.61750000       0.26300000
C       -0.30130000      -2.03180000       1.19390000
O       -0.02700000      -0.62380000       1.18090000
H        0.85970000       1.77520000       0.72730000
H        0.09820000       1.93370000      -0.88200000
H       -0.89530000       1.81560000       0.59790000
H       -0.97320000      -2.39750000      -1.56330000
H        0.71840000      -2.34710000      -2.04140000
H        0.65820000      -4.70920000      -0.79280000
H        0.49830000      -4.69890000       0.96930000
H       -0.93080000      -4.42180000      -0.05400000
H        2.07030000      -1.68000000       0.25550000
H       -1.38510000      -2.18580000       1.11000000
H        0.03860000      -2.39320000       2.16690000
