16
Properties=species:S:1:pos:R:3 gdb_67378=T pbc="F F F"
O       -0.03810000       1.42530000      -0.04680000
C        0.01110000       0.04690000      -0.03260000
C       -1.13640000      -0.95590000       0.12090000
C       -0.60330000      -1.77570000      -1.05490000
C        0.66650000      -0.84900000      -1.10370000
N        1.91370000      -1.47910000      -0.67620000
C        1.92020000      -1.89220000       0.52020000
O        0.93140000      -1.78660000       1.44980000
C       -0.06340000      -0.80470000       1.17890000
H        0.79690000       1.76670000       0.29400000
H       -2.17600000      -0.78140000       0.37050000
H       -0.40670000      -2.83500000      -0.87200000
H       -1.22130000      -1.67170000      -1.94930000
H        0.81030000      -0.35670000      -2.06500000
H        2.77600000      -2.41720000       0.93880000
H       -0.37920000      -0.33210000       2.10140000
