11
Properties=species:S:1:pos:R:3 gdb_23755=T pbc="F F F"
F        0.01260000       0.01310000       0.00370000
C       -0.03120000       1.34270000       0.01100000
C       -1.23210000       2.02360000       0.03000000
C       -1.19910000       3.41910000       0.03660000
C        0.03540000       4.05290000       0.02370000
N        1.19860000       3.38750000       0.00520000
C        1.15600000       2.08120000      -0.00080000
F        2.30690000       1.42220000      -0.01910000
H       -2.16080000       1.46490000       0.03930000
H       -2.11580000       3.99620000       0.05140000
H        0.10640000       5.13620000       0.02820000
