19
Properties=species:S:1:pos:R:3 gdb_1142=T pbc="F F F"
C       -0.41860000       1.23930000       0.99500000
C        0.25200000      -0.01860000       0.47940000
C        0.57230000      -0.12200000      -1.02620000
C        2.04110000      -0.31930000      -0.56850000
C        2.57770000      -1.73710000      -0.73350000
C        3.04050000       0.72810000      -1.03820000
O        1.65760000      -0.07890000       0.81980000
H        0.07200000       2.13360000       0.59840000
H       -1.47390000       1.25980000       0.70050000
H       -0.36850000       1.27820000       2.08800000
H       -0.27200000      -0.90370000       0.86850000
H        0.12130000      -0.95820000      -1.56380000
H        0.39710000       0.80120000      -1.58430000
H        2.79750000      -1.95180000      -1.78520000
H        3.50000000      -1.86320000      -0.15730000
H        1.85090000      -2.47270000      -0.37670000
H        2.64670000       1.73610000      -0.88210000
H        3.97820000       0.63830000      -0.47970000
H        3.26350000       0.60230000      -2.10350000
