19
Properties=species:S:1:pos:R:3 gdb_80493=T pbc="F F F"
C       -0.06890000       1.54890000      -0.30900000
C        0.11790000       0.05650000      -0.14340000
C        1.37990000      -0.71080000      -0.42430000
C        2.62030000       0.01330000       0.11350000
N        2.06090000      -0.03670000       1.48480000
C        2.06050000       1.11000000       2.37330000
C        0.82400000      -0.64240000       1.01360000
C        0.16210000      -1.64110000       1.79970000
N       -0.38930000      -2.43100000       2.44160000
H        0.84370000       2.11480000      -0.11530000
H       -0.38090000       1.77090000      -1.33540000
H       -0.84570000       1.92390000       0.36460000
H       -0.75620000      -0.51960000      -0.44380000
H        1.40470000      -1.58020000      -1.06700000
H        3.54660000      -0.56350000       0.02740000
H        2.79230000       1.01920000      -0.29080000
H        1.62020000       2.02740000       1.95280000
H        1.50480000       0.85030000       3.27960000
H        3.09110000       1.33130000       2.66940000
