16
Properties=species:S:1:pos:R:3 gdb_50397=T pbc="F F F"
O        0.01520000      -0.00810000      -0.11040000
C        0.04620000       1.20590000      -0.09210000
N        1.18660000       1.93710000      -0.05800000
C        2.50300000       1.29660000      -0.04130000
C        3.42520000       2.47570000      -0.00640000
C        2.75130000       3.63260000      -0.00360000
C        1.26090000       3.40110000      -0.03660000
C        3.34310000       4.97110000       0.02690000
O        2.69090000       5.99140000       0.02830000
H       -0.86220000       1.84040000      -0.10110000
H        2.62000000       0.63780000       0.83050000
H        2.65470000       0.66290000      -0.92630000
H        4.50410000       2.37620000       0.01360000
H        0.80090000       3.85670000      -0.92300000
H        0.76550000       3.83260000       0.84270000
H        4.45440000       4.99050000       0.04940000
