16
Properties=species:S:1:pos:R:3 gdb_124624=T pbc="F F F"
C        0.01710000       1.55630000       0.02390000
C        0.01910000       0.02580000      -0.03870000
C        0.78020000      -0.49110000      -1.26340000
N        0.67910000      -0.48690000       1.16790000
C        0.07190000      -1.21340000       1.96880000
O       -1.23060000      -1.68280000       1.94930000
N       -1.39880000      -2.46200000       3.09300000
N       -0.35170000      -2.48400000       3.74520000
O        0.62720000      -1.73020000       3.12050000
H        1.04120000       1.93490000       0.09550000
H       -0.44810000       1.97370000      -0.87450000
H       -0.53910000       1.91300000       0.89560000
H       -1.02090000      -0.32480000      -0.09790000
H        1.82420000      -0.16540000      -1.22720000
H        0.76590000      -1.58410000      -1.30220000
H        0.32650000      -0.10900000      -2.18320000
