21
Properties=species:S:1:pos:R:3 gdb_108482=T pbc="F F F"
C        0.25720000       1.42870000       0.07650000
O        0.22880000       0.01500000      -0.01290000
C        0.63390000      -0.62270000       1.15930000
C        2.16570000      -0.61190000       1.47460000
C        2.19700000      -2.16540000       1.33750000
C        0.65520000      -2.18840000       1.24440000
C       -0.05980000      -2.09070000       2.62480000
C       -0.31360000      -0.57160000       2.38400000
O       -0.12620000       0.36060000       3.42020000
H        1.27720000       1.80660000       0.24020000
H       -0.11230000       1.81690000      -0.87540000
H       -0.38060000       1.79940000       0.88990000
H        2.75000000      -0.08030000       0.72130000
H        2.44620000      -0.21780000       2.45700000
H        2.68140000      -2.48440000       0.41140000
H        2.63730000      -2.72520000       2.16770000
H        0.17910000      -2.81540000       0.49180000
H       -0.95660000      -2.69940000       2.75390000
H        0.60900000      -2.28560000       3.47040000
H       -1.33170000      -0.40780000       2.01640000
H        0.74860000       0.21930000       3.79740000
