15
Properties=species:S:1:pos:R:3 gdb_12045=T pbc="F F F"
O       -0.09260000       1.43070000      -0.04970000
C       -0.02460000       0.02610000       0.02150000
C        0.24520000      -0.64330000       1.44360000
C       -1.11240000      -1.33650000       1.31450000
N       -2.10500000      -0.24130000       1.25350000
C       -1.40080000      -0.65970000       0.02050000
C        0.85700000      -0.52320000      -1.00600000
C        1.60870000      -0.93630000      -1.84910000
H        0.79520000       1.76240000      -0.22090000
H        1.10810000      -1.30960000       1.43630000
H        0.31030000       0.07710000       2.26130000
H       -1.38340000      -2.33160000       1.64140000
H       -3.03110000      -0.66670000       1.20840000
H       -1.94210000      -0.99450000      -0.85530000
H        2.26480000      -1.30660000      -2.59790000
