20
Properties=species:S:1:pos:R:3 gdb_45358=T pbc="F F F"
N       -0.06760000       1.32510000      -0.43200000
C       -0.01860000       0.11680000      -0.05600000
C       -1.28930000      -0.69990000       0.10380000
C       -1.12120000      -1.91710000       1.02590000
C       -0.72320000      -1.49620000       2.46440000
C        0.82950000      -1.35550000       2.42340000
C        1.21000000      -1.70200000       0.97130000
C        0.12160000      -2.68520000       0.54200000
O        1.17670000      -0.51750000       0.14280000
H        0.88030000       1.69940000      -0.51700000
H       -2.07740000      -0.02530000       0.44620000
H       -1.58220000      -1.04210000      -0.89700000
H       -2.03480000      -2.51660000       1.01170000
H       -1.21860000      -0.56980000       2.76750000
H       -1.02050000      -2.26690000       3.18130000
H        1.18220000      -0.35510000       2.68380000
H        1.30880000      -2.05980000       3.10960000
H        2.23010000      -2.07320000       0.86400000
H        0.24440000      -3.63450000       1.07470000
H        0.13060000      -2.88540000      -0.53300000
