17
Properties=species:S:1:pos:R:3 gdb_17367=T pbc="F F F"
N       -0.06700000       1.34330000       0.00650000
C        0.10810000      -0.01400000       0.08250000
O        1.20440000      -0.51770000       0.22790000
C       -1.18790000      -0.81070000      -0.01300000
C       -1.93180000      -0.87360000      -1.40350000
C       -1.85010000      -2.40290000      -1.34440000
C       -0.41690000      -2.83840000      -1.24980000
C       -1.09700000      -2.33660000      -0.00980000
H        0.75630000       1.92010000      -0.05770000
H       -0.94940000       1.74590000      -0.25840000
H       -1.87790000      -0.44360000       0.75330000
H       -2.94970000      -0.48200000      -1.34420000
H       -1.42170000      -0.40150000      -2.25040000
H       -2.64200000      -3.07700000      -1.64610000
H       -0.25800000      -3.91170000      -1.27450000
H        0.37840000      -2.25960000      -1.70950000
H       -1.20740000      -2.95590000       0.87120000
