18
Properties=species:S:1:pos:R:3 gdb_61284=T pbc="F F F"
C       -0.08000000       1.59130000      -0.01690000
C       -0.00770000       0.05990000      -0.03270000
C       -1.42170000      -0.55680000       0.04240000
C       -1.41510000      -2.01770000       0.07470000
N       -1.41430000      -3.17260000       0.09880000
N        0.69300000      -0.46240000      -1.19540000
C        2.07350000      -0.54820000      -1.18080000
N        2.61970000      -0.92080000      -2.40180000
O        2.74620000      -0.29980000      -0.19820000
H        0.93160000       2.00210000      -0.03530000
H       -0.62800000       1.97130000      -0.88730000
H       -0.58220000       1.95450000       0.88570000
H        0.57270000      -0.27360000       0.83060000
H       -1.93340000      -0.18460000       0.93610000
H       -2.02120000      -0.22960000      -0.81710000
H        0.25040000      -0.33290000      -2.09340000
H        2.08200000      -1.55830000      -2.97080000
H        3.59340000      -1.17320000      -2.32090000
