13
Properties=species:S:1:pos:R:3 gdb_5210=T pbc="F F F"
C       -0.08990000       1.43310000       0.01080000
C       -0.01450000      -0.01750000       0.00270000
C        0.05390000      -1.22100000      -0.00410000
C        0.13500000      -2.62700000      -0.01210000
N        1.19680000      -3.38370000      -0.02250000
C        0.70440000      -4.67540000      -0.02640000
C       -0.65070000      -4.63700000      -0.01810000
O       -1.03650000      -3.33300000      -0.00880000
H        0.91200000       1.87480000       0.00360000
H       -0.62850000       1.80560000      -0.86750000
H       -0.61170000       1.79650000       0.90300000
H        1.35840000      -5.53270000      -0.03490000
H       -1.43560000      -5.37350000      -0.01730000
