18
Properties=species:S:1:pos:R:3 gdb_71815=T pbc="F F F"
O       -0.21920000       1.39510000      -0.05600000
C       -0.03230000       0.02600000      -0.04820000
C        0.73850000      -0.76300000      -1.11000000
C       -0.17140000      -1.98350000      -0.76400000
C       -1.12600000      -1.01590000       0.00640000
C       -0.25910000      -0.79600000       1.22230000
C        0.55340000      -2.04380000       1.45730000
C       -0.20490000      -3.32240000       1.33430000
N        0.57560000      -2.81480000       0.20060000
H        0.53810000       1.80780000       0.37400000
H        0.52020000      -0.36210000      -2.10330000
H        1.81610000      -0.91590000      -0.99210000
H       -0.56600000      -2.57340000      -1.59060000
H       -2.20230000      -0.92690000      -0.03580000
H       -0.67700000      -0.23880000       2.05370000
H        1.47990000      -1.99800000       2.02240000
H        0.18770000      -4.23440000       1.77340000
H       -1.29010000      -3.25750000       1.29590000
