19
Properties=species:S:1:pos:R:3 gdb_84856=T pbc="F F F"
C       -0.04110000       1.56790000      -0.00400000
C        0.07470000       0.04270000      -0.03570000
N        0.73450000      -0.36750000      -1.27420000
C        1.49330000      -1.37390000      -1.26730000
O        1.84500000      -2.20650000      -0.25200000
C        1.45470000      -1.87400000       1.07800000
C        2.61520000      -1.24960000       1.88360000
N        2.06650000       0.08990000       1.57380000
C        0.75040000      -0.50160000       1.22110000
H        0.95480000       2.01380000       0.06710000
H       -0.51440000       1.92470000      -0.92170000
H       -0.63780000       1.90060000       0.85280000
H       -0.94090000      -0.38080000      -0.06650000
H        1.97570000      -1.71290000      -2.18250000
H        0.96100000      -2.75150000       1.49680000
H        2.57310000      -1.53470000       2.94430000
H        3.62120000      -1.43810000       1.49630000
H        2.05760000       0.75270000       2.34020000
H        0.03820000      -0.51890000       2.05950000
