23
Properties=species:S:1:pos:R:3 gdb_114079=T pbc="F F F"
C        0.01240000       1.53020000      -0.02370000
C       -0.01980000       0.00170000       0.06740000
C       -1.43070000      -0.58700000       0.02280000
C       -2.16670000      -0.44740000      -1.35280000
C       -2.37040000      -1.95350000      -1.64990000
C       -2.87780000      -2.38240000      -2.99720000
C       -2.90080000      -2.50260000      -0.30030000
C       -1.45310000      -2.13410000       0.07170000
O       -1.05040000      -2.49530000      -1.28620000
H        1.03920000       1.90750000       0.01460000
H       -0.43630000       1.88740000      -0.95680000
H       -0.54130000       1.98830000       0.80390000
H        0.56360000      -0.43890000      -0.74930000
H        0.46670000      -0.31280000       1.00070000
H       -2.02860000      -0.16730000       0.84100000
H       -3.10840000       0.10570000      -1.29590000
H       -1.53830000       0.01750000      -2.11780000
H       -2.21880000      -2.01300000      -3.78990000
H       -2.92520000      -3.47260000      -3.06870000
H       -3.88020000      -1.97800000      -3.17290000
H       -3.72970000      -1.99070000       0.19670000
H       -3.05680000      -3.58190000      -0.33510000
H       -0.88370000      -2.64050000       0.85220000
