25
Properties=species:S:1:pos:R:3 gdb_118775=T pbc="F F F"
C       -0.02140000       1.57530000       0.17100000
C       -0.02110000       0.04460000       0.21610000
C       -1.34900000      -0.56080000      -0.26390000
C       -1.42040000      -2.07980000      -0.15270000
C       -0.38320000      -2.81930000      -0.98330000
C       -1.79050000      -2.67910000       1.20030000
C       -2.76430000      -2.75310000       0.04410000
C       -4.07710000      -1.99960000       0.08020000
O       -2.88900000      -3.99740000      -0.60730000
H        0.93430000       1.98540000       0.51240000
H       -0.19550000       1.94180000      -0.84700000
H       -0.80910000       1.99200000       0.80900000
H        0.80480000      -0.33370000      -0.39700000
H        0.17840000      -0.29500000       1.24070000
H       -2.15830000      -0.10270000       0.31520000
H       -1.52020000      -0.26680000      -1.30950000
H        0.62850000      -2.62840000      -0.61120000
H       -0.56010000      -3.89450000      -0.96590000
H       -0.42000000      -2.49290000      -2.02960000
H       -1.29950000      -3.60200000       1.49250000
H       -2.01170000      -2.00340000       2.02150000
H       -4.00510000      -1.04960000       0.61310000
H       -4.43980000      -1.80460000      -0.93430000
H       -4.83650000      -2.60210000       0.59500000
H       -3.43250000      -4.56380000      -0.04860000
