16
Properties=species:S:1:pos:R:3 gdb_32491=T pbc="F F F"
O        0.30010000       1.08380000       0.74660000
C        0.05900000       0.03450000      -0.18150000
C       -1.36230000      -0.45220000      -0.15390000
C       -2.18120000      -0.47830000       0.97140000
N       -3.38440000      -0.98960000       0.61460000
C       -3.38190000      -1.30400000      -0.72450000
C       -4.56090000      -1.86080000      -1.34610000
O       -5.59850000      -2.08230000      -0.74700000
C       -2.12670000      -0.97180000      -1.22200000
H       -0.30990000       1.79840000       0.53410000
H        0.32930000       0.32820000      -1.20780000
H        0.75300000      -0.76330000       0.10870000
H       -1.97210000      -0.16200000       1.98090000
H       -4.19570000      -1.12750000       1.19640000
H       -4.45590000      -2.07840000      -2.42940000
H       -1.80680000      -1.09450000      -2.24680000
