18
Properties=species:S:1:pos:R:3 gdb_87286=T pbc="F F F"
C        0.09030000       1.48150000      -0.07230000
C        0.09720000      -0.01230000       0.10280000
O        1.34490000      -0.68590000      -0.04080000
C        0.72750000      -0.74240000       1.24510000
C        1.40240000       0.04440000       2.33900000
O        2.20580000       0.92360000       2.16480000
C        0.21920000      -2.09210000       1.66830000
C       -0.02960000      -3.15520000       0.66910000
N        1.11950000      -3.25850000       1.58660000
H        0.93990000       1.94020000       0.43370000
H        0.14480000       1.72260000      -1.13900000
H       -0.84150000       1.90380000       0.31840000
H       -0.73760000      -0.54500000      -0.35710000
H        1.08210000      -0.25430000       3.36200000
H       -0.38390000      -2.07470000       2.57450000
H       -0.82170000      -3.87800000       0.84060000
H        0.17220000      -2.92190000      -0.37190000
H        1.95920000      -2.98580000       1.07770000
