21
Properties=species:S:1:pos:R:3 gdb_91464=T pbc="F F F"
C       -0.14110000       1.51520000       0.00790000
C        0.05800000       0.00240000       0.02420000
C        1.00940000      -0.56270000      -1.08490000
C        2.01680000      -1.32460000      -0.20390000
C        1.08520000      -2.02980000       0.82040000
C        0.80300000      -0.55790000       1.27680000
C        2.30720000      -0.29420000       0.92070000
C        0.25080000      -0.25070000       2.57110000
C       -0.21660000       0.00830000       3.64960000
H        0.81190000       2.05250000       0.05650000
H       -0.64750000       1.82700000      -0.91180000
H       -0.75160000       1.83750000       0.85710000
H       -0.92550000      -0.47680000      -0.03410000
H        0.48940000      -1.21780000      -1.78980000
H        1.48680000       0.23780000      -1.65950000
H        2.82130000      -1.86080000      -0.70660000
H        0.23690000      -2.60910000       0.44410000
H        1.62990000      -2.59680000       1.57760000
H        2.97640000      -0.67960000       1.69220000
H        2.60030000       0.72070000       0.64030000
H       -0.62540000       0.23450000       4.60290000
