10
Properties=species:S:1:pos:R:3 gdb_1822=T pbc="F F F"
O        0.01500000      -0.04700000       0.00280000
C        0.00920000       1.15770000       0.00930000
N       -1.11650000       1.98140000       0.02890000
C       -0.77310000       3.33350000       0.03150000
O       -1.53570000       4.26600000       0.04670000
C        0.73050000       3.35430000       0.01150000
C        1.18170000       2.09940000      -0.00130000
H       -2.06440000       1.64050000       0.03970000
H        1.28260000       4.28330000       0.00910000
H        2.19890000       1.73470000      -0.01680000
