18
Properties=species:S:1:pos:R:3 gdb_56855=T pbc="F F F"
O        0.63560000       1.03110000      -0.56250000
C       -0.08530000      -0.09140000      -0.05820000
C       -0.18190000      -1.16890000      -1.04780000
C       -0.21340000      -2.05340000      -1.86120000
C        0.56030000      -0.59070000       1.23130000
C        0.26090000      -0.07480000       2.58030000
C       -1.21470000       0.26790000       2.77180000
C       -1.51600000      -1.17710000       2.30080000
N       -0.04990000      -1.52460000       2.19510000
H        1.45730000       0.70120000      -0.94310000
H       -1.08750000       0.29700000       0.14230000
H       -0.25710000      -2.83490000      -2.57930000
H        1.60300000      -0.86230000       1.07000000
H        1.05130000       0.16870000       3.28370000
H       -1.47610000       0.42670000       3.81920000
H       -1.60830000       1.10530000       2.18760000
H       -1.97140000      -1.79870000       3.07350000
H       -2.07800000      -1.31290000       1.37200000
