21
Properties=species:S:1:pos:R:3 gdb_63071=T pbc="F F F"
C       -0.28330000       1.58970000      -0.11140000
C       -0.00650000       0.10740000       0.02840000
O       -1.15440000      -0.66500000      -0.27160000
C        1.28910000      -0.57070000      -0.36450000
C        2.62870000       0.18410000      -0.36540000
C        3.01340000       0.43870000       1.10120000
C        2.24650000       1.43580000       1.93430000
C        1.86280000      -0.02450000       1.97600000
C        0.79800000      -0.62090000       1.08210000
H        0.62000000       2.19370000      -0.19700000
H       -0.85780000       1.74990000      -1.03240000
H       -0.88460000       1.96950000       0.72030000
H       -1.35200000      -0.53950000      -1.20710000
H        1.19390000      -1.43850000      -1.00980000
H        3.38890000      -0.45010000      -0.83210000
H        2.59670000       1.10800000      -0.95590000
H        4.04260000       0.24480000       1.38430000
H        2.75790000       1.82020000       2.81160000
H        1.59660000       2.16190000       1.46910000
H        2.04680000      -0.55970000       2.90090000
H        0.30640000      -1.51340000       1.45150000
