17
Properties=species:S:1:pos:R:3 gdb_109007=T pbc="F F F"
O        0.13290000       1.33730000      -0.00780000
C       -0.00750000      -0.06880000      -0.07270000
C       -1.42870000      -0.52330000      -0.03780000
C       -2.57960000       0.16530000      -0.04690000
C       -3.61200000      -0.95010000      -0.02340000
O       -3.04550000      -1.89600000       0.95910000
C       -1.94010000      -1.96170000      -0.00900000
C       -3.04670000      -1.91730000      -1.13440000
O       -3.74930000      -3.09430000      -1.34080000
H       -0.25530000       1.62660000       0.82490000
H        0.46560000      -0.37420000      -1.01560000
H        0.56220000      -0.57200000       0.72780000
H       -2.75480000       1.22830000      -0.11400000
H       -4.67250000      -0.74150000       0.10930000
H       -1.26080000      -2.80230000       0.13320000
H       -2.78510000      -1.49280000      -2.10550000
H       -3.96280000      -3.43250000      -0.45960000
