18
Properties=species:S:1:pos:R:3 gdb_103365=T pbc="F F F"
O       -0.14910000       1.47900000      -0.05640000
C       -0.00920000       0.05460000       0.01340000
C       -1.42880000      -0.50880000      -0.00780000
O       -2.20250000       0.16320000       0.93200000
C       -2.02960000      -0.79710000      -1.46010000
N       -1.10690000      -1.98410000      -1.44660000
C       -1.53850000      -2.07760000      -0.00840000
C       -3.06530000      -2.25540000      -0.10560000
C       -3.38980000      -1.39930000      -1.07900000
H        0.69160000       1.88060000       0.17840000
H        0.57770000      -0.33600000      -0.82080000
H        0.46970000      -0.23780000       0.96000000
H       -1.85200000       1.06490000       0.95500000
H       -1.95380000      -0.09520000      -2.29060000
H       -1.50090000      -2.75260000      -1.98990000
H       -0.96050000      -2.71200000       0.66540000
H       -3.68800000      -2.87320000       0.52450000
H       -4.35710000      -1.11970000      -1.47030000
