15
Properties=species:S:1:pos:R:3 gdb_19146=T pbc="F F F"
O       -0.86050000       1.09690000      -0.36750000
C        0.22550000       0.86030000       0.09130000
C        1.41490000       1.77010000      -0.03940000
C        2.24120000       1.91130000       1.18420000
O        2.66740000       1.08340000       0.11180000
C        1.35180000       2.83700000      -1.08930000
C        2.58190000       3.54180000      -1.51760000
N        1.93060000       2.57540000      -2.41910000
H        0.44480000      -0.06370000       0.67160000
H        2.79170000       2.84010000       1.31600000
H        1.96580000       1.38490000       2.09730000
H        0.39470000       3.34890000      -1.12160000
H        2.52310000       4.57930000      -1.83300000
H        3.52070000       3.25170000      -1.05410000
H        2.45270000       1.70140000      -2.38570000
