21
Properties=species:S:1:pos:R:3 gdb_77488=T pbc="F F F"
C       -0.15360000       1.56000000      -0.00810000
C        0.02380000       0.04720000       0.01440000
C        1.20250000      -0.63790000      -0.78900000
C        1.44850000      -0.63250000      -2.26980000
C        2.15540000      -0.16100000       0.36790000
C        0.88020000      -0.64690000       1.14980000
C        0.63370000      -0.65510000       2.63060000
C        0.93200000      -1.81680000       0.15680000
O        0.82400000      -3.00660000       0.13340000
H        0.77070000       2.12030000       0.14860000
H       -0.57110000       1.87540000      -0.97050000
H       -0.86130000       1.86720000       0.76950000
H       -0.94950000      -0.42960000      -0.14960000
H        1.57660000       0.38540000      -2.65340000
H        2.35100000      -1.20080000      -2.51730000
H        0.61020000      -1.09170000      -2.80420000
H        3.07560000      -0.73080000       0.51830000
H        2.35280000       0.91000000       0.40560000
H        0.62900000       0.35920000       3.04400000
H       -0.33160000      -1.11810000       2.86080000
H        1.40860000      -1.22670000       3.15170000
