21
Properties=species:S:1:pos:R:3 gdb_67583=T pbc="F F F"
C        0.03990000       1.53210000       0.07530000
C       -0.00710000       0.03770000      -0.02850000
C        1.05510000      -0.84130000      -0.66480000
C        0.42920000      -1.92370000      -1.52320000
C       -0.84510000      -2.13260000      -0.72790000
C       -0.59690000      -1.90050000       0.75560000
C        0.68090000      -1.03210000       0.79800000
C       -1.30080000      -0.84140000      -0.07150000
C       -2.71110000      -0.33750000      -0.01600000
H        1.06570000       1.87690000       0.24400000
H       -0.32310000       2.01440000      -0.84080000
H       -0.57140000       1.90110000       0.90730000
H        2.01750000      -0.40420000      -0.90690000
H        0.23170000      -1.58300000      -2.54650000
H        1.04590000      -2.82880000      -1.57320000
H       -1.59360000      -2.85820000      -1.02680000
H       -0.98590000      -2.52790000       1.54660000
H        1.37070000      -0.92640000       1.62480000
H       -2.86730000       0.34080000       0.83100000
H       -2.98430000       0.20590000      -0.92920000
H       -3.41570000      -1.16860000       0.09520000
