15
Properties=species:S:1:pos:R:3 gdb_116738=T pbc="F F F"
C        0.10480000       1.16300000       0.26960000
O       -0.14970000      -0.21750000       0.01540000
C        0.61980000      -0.79380000      -0.91300000
N        0.47240000      -2.01360000      -1.19890000
C        1.34780000      -2.56710000      -2.19080000
C        2.45840000      -3.40650000      -1.57100000
O        2.77940000      -3.39660000      -0.41370000
C        3.18360000      -4.25010000      -2.55020000
N        3.74460000      -4.89450000      -3.32940000
H        1.11610000       1.31360000       0.66350000
H       -0.03090000       1.76660000      -0.63520000
H       -0.62270000       1.47230000       1.01990000
H        1.35260000      -0.12190000      -1.38870000
H        0.78680000      -3.21160000      -2.88020000
H        1.86290000      -1.81970000      -2.82680000
