19
Properties=species:S:1:pos:R:3 gdb_36740=T pbc="F F F"
N        0.47180000      -1.17250000      -0.23480000
C        0.32850000      -0.02660000      -0.23930000
C        0.14050000       1.42610000      -0.21520000
N        1.39350000       2.11140000       0.09110000
C        1.23090000       3.56400000       0.21550000
C        2.54150000       4.22070000       0.70620000
C        3.12470000       4.82420000      -0.57740000
O        1.98700000       5.25030000      -1.31040000
C        1.01630000       4.22530000      -1.17930000
H       -0.21210000       1.74100000      -1.20460000
H       -0.67750000       1.65320000       0.49380000
H        1.75980000       1.73960000       0.96170000
H        0.39480000       3.81660000       0.88860000
H        2.31760000       5.01280000       1.42520000
H        3.21120000       3.50130000       1.18500000
H        3.76490000       5.69370000      -0.41140000
H        3.69400000       4.06680000      -1.13920000
H        1.15430000       3.45920000      -1.95860000
H        0.03140000       4.68400000      -1.30130000
