21
Properties=species:S:1:pos:R:3 gdb_53045=T pbc="F F F"
C        0.01320000       1.50160000      -0.19120000
C        0.01120000       0.04950000      -0.08600000
C        0.01090000      -1.15370000       0.00120000
C        0.00200000      -2.58920000       0.10350000
C        0.57100000      -3.41280000      -1.09580000
C       -0.70720000      -4.30110000      -1.11270000
C       -1.31550000      -3.48370000       0.05540000
C       -0.99600000      -4.03090000       1.46620000
C        0.33110000      -3.21820000       1.49940000
H        0.64020000       1.84170000      -1.02330000
H       -0.99720000       1.89140000      -0.36030000
H        0.39710000       1.96880000       0.72290000
H        0.68710000      -2.80840000      -1.99730000
H        1.51920000      -3.91950000      -0.89470000
H       -1.27270000      -4.22640000      -2.04430000
H       -0.55340000      -5.36230000      -0.89560000
H       -2.30400000      -3.05250000      -0.10450000
H       -1.70960000      -3.70340000       2.22620000
H       -0.90190000      -5.11870000       1.53590000
H        1.25410000      -3.80480000       1.51770000
H        0.37680000      -2.47900000       2.30080000
