24
Properties=species:S:1:pos:R:3 gdb_86907=T pbc="F F F"
C       -0.21610000       1.48220000       0.13580000
C        0.05310000      -0.00910000       0.00920000
C        1.21870000      -0.49350000      -0.90060000
C        1.54700000      -1.58160000       0.15880000
C        3.00660000      -1.88600000       0.45130000
N        3.13800000      -2.79160000       1.58900000
C        3.13540000      -4.21810000       1.28350000
C        4.39070000      -3.52850000       1.69140000
C        0.72770000      -0.76140000       1.19150000
H        0.69390000       2.02230000       0.42180000
H       -0.57190000       1.90670000      -0.81010000
H       -0.97650000       1.68650000       0.89820000
H       -0.86970000      -0.52800000      -0.27590000
H        0.98010000      -0.81820000      -1.91700000
H        2.01440000       0.25930000      -0.95530000
H        1.02320000      -2.51390000      -0.08260000
H        3.49240000      -2.29230000      -0.45760000
H        3.53210000      -0.95580000       0.70430000
H        2.60040000      -4.85520000       1.98220000
H        3.05270000      -4.51710000       0.23910000
H        5.14140000      -3.36960000       0.91810000
H        4.79000000      -3.65080000       2.69440000
H        1.37880000      -0.09500000       1.76870000
H        0.08770000      -1.30620000       1.88900000
