17
Properties=species:S:1:pos:R:3 gdb_97511=T pbc="F F F"
O       -0.04570000       1.47700000       0.05130000
C       -0.02840000       0.05820000       0.01790000
C       -1.38960000      -0.45450000       0.00510000
C       -2.50340000      -0.91910000      -0.00650000
C       -3.84690000      -1.46100000      -0.01940000
O       -4.05070000      -2.66170000      -0.04610000
C       -4.94570000      -0.45620000       0.00220000
C       -6.22120000      -0.81210000      -0.75080000
C       -6.22210000      -0.84500000       0.73730000
H        0.86910000       1.77670000       0.05780000
H        0.49460000      -0.32160000      -0.87520000
H        0.49360000      -0.36330000       0.89270000
H       -4.64210000       0.58310000       0.02540000
H       -6.72960000      -0.00300000      -1.26200000
H       -6.20480000      -1.76280000      -1.27110000
H       -6.20620000      -1.81770000       1.21520000
H       -6.73100000      -0.05930000       1.28330000
