19
Properties=species:S:1:pos:R:3 gdb_31707=T pbc="F F F"
C       -0.40830000       1.37330000       0.11260000
C        0.24170000      -0.00950000      -0.06010000
C        0.91040000      -0.51110000       1.18590000
C        2.23900000      -0.72290000       1.38010000
O        2.48490000      -1.17760000       2.64280000
C        1.28260000      -1.24900000       3.27740000
C        1.28450000      -1.73040000       4.69350000
O        0.03590000      -2.28630000       5.06440000
C        0.28690000      -0.85800000       2.43750000
H        0.33880000       2.12330000       0.38980000
H       -0.89070000       1.69660000      -0.81510000
H       -1.16910000       1.35730000       0.89950000
H       -0.52470000      -0.72740000      -0.37970000
H        0.97770000       0.03170000      -0.87120000
H        3.10370000      -0.61220000       0.74590000
H        2.11920000      -2.43600000       4.83020000
H        1.45430000      -0.90180000       5.39230000
H       -0.16930000      -2.97830000       4.42620000
H       -0.76330000      -0.81310000       2.68090000
