16
Properties=species:S:1:pos:R:3 gdb_30210=T pbc="F F F"
C       -0.57880000       1.48420000      -0.00890000
C        0.20570000       0.19720000       0.01330000
O        1.09160000       0.12440000      -1.12650000
C        2.22820000      -0.44910000      -0.62100000
C        3.43650000      -0.93370000      -1.03050000
N        4.13660000      -1.20250000       0.14360000
C        3.35730000      -0.94200000       1.26870000
C        2.17990000      -0.45430000       0.78060000
O        1.01110000       0.11590000       1.21090000
H        0.10540000       2.33540000       0.01670000
H       -1.18290000       1.53430000      -0.91840000
H       -1.24230000       1.52850000       0.85840000
H       -0.44580000      -0.69140000      -0.01240000
H        3.87890000      -1.08900000      -1.99880000
H        4.95190000      -1.78920000       0.16950000
H        3.73210000      -1.10460000       2.26390000
