19
Properties=species:S:1:pos:R:3 gdb_23383=T pbc="F F F"
C       -0.16630000       1.48180000      -0.00690000
C       -0.02360000      -0.01030000       0.12370000
N        0.14170000      -0.64300000       1.22230000
O        0.19350000       0.22570000       2.32270000
C       -0.01990000      -0.82770000      -1.13190000
C       -0.38250000      -2.32750000      -1.17950000
C       -1.83740000      -1.85790000      -0.95660000
N       -1.32510000      -0.82380000      -1.98170000
C       -0.68750000      -2.04780000      -2.66730000
H        0.80890000       1.97310000       0.09130000
H       -0.59290000       1.73850000      -0.97850000
H       -0.80230000       1.87450000       0.78970000
H        0.29450000      -0.38680000       3.05890000
H        0.83200000      -0.52050000      -1.75330000
H        0.15000000      -3.16870000      -0.72700000
H       -2.64060000      -2.48440000      -1.35340000
H       -2.10280000      -1.43440000       0.01130000
H        0.14400000      -1.79400000      -3.33120000
H       -1.41930000      -2.68540000      -3.16940000
