16
Properties=species:S:1:pos:R:3 gdb_70970=T pbc="F F F"
C        0.00920000       1.39860000      -0.09920000
C       -0.01280000      -0.08560000       0.01210000
O        0.91590000      -0.85330000      -0.77350000
C        0.12600000      -2.02120000      -0.42480000
C        0.42820000      -2.22990000       1.08840000
C       -0.32470000      -0.91460000       1.27580000
C       -1.10020000      -1.10570000      -0.02730000
C        0.15790000      -3.09240000      -1.38880000
N        0.15310000      -3.97080000      -2.13970000
H        0.96670000       1.79700000       0.25170000
H       -0.13760000       1.71330000      -1.13650000
H       -0.78610000       1.83440000       0.51240000
H       -0.12730000      -3.07690000       1.49610000
H        1.48790000      -2.28920000       1.35070000
H       -0.67530000      -0.46620000       2.19590000
H       -2.14800000      -1.10410000      -0.29180000
