23
Properties=species:S:1:pos:R:3 gdb_122073=T pbc="F F F"
C       -0.16360000       1.57370000       0.01900000
C       -0.12390000       0.04350000       0.00560000
C       -1.51890000      -0.59280000      -0.01910000
C       -1.47030000      -2.12340000      -0.03220000
C       -2.86210000      -2.80010000      -0.01740000
N       -3.70840000      -2.53050000      -1.17620000
C       -4.75890000      -1.53770000      -1.00110000
C       -2.68060000      -4.26220000       0.13420000
N       -2.51410000      -5.39960000       0.25260000
H        0.84490000       1.99770000       0.03650000
H       -0.67390000       1.96530000      -0.86810000
H       -0.69770000       1.94860000       0.89920000
H        0.44640000      -0.30220000      -0.86660000
H        0.42200000      -0.31840000       0.88650000
H       -2.08910000      -0.25170000       0.85610000
H       -2.06340000      -0.22990000      -0.89990000
H       -0.92670000      -2.47590000      -0.91880000
H       -0.90290000      -2.48570000       0.83370000
H       -3.40200000      -2.46050000       0.87580000
H       -3.14580000      -2.34490000      -1.99670000
H       -5.46970000      -1.88780000      -0.24490000
H       -4.41240000      -0.53520000      -0.70120000
H       -5.30900000      -1.43860000      -1.94120000
