15
Properties=species:S:1:pos:R:3 gdb_64895=T pbc="F F F"
C       -0.04210000       1.51720000       0.04320000
C        0.00280000      -0.00340000       0.00700000
C        1.32730000      -0.71660000      -0.21750000
C        0.69900000      -0.74040000       1.15950000
O        1.20890000       0.09070000       2.15200000
C        0.14800000      -1.98850000       1.64690000
N       -0.24500000      -2.98890000       2.07220000
C       -1.17150000      -0.62300000      -0.56010000
N       -2.11700000      -1.08860000      -1.03520000
H        0.84900000       1.91140000       0.53120000
H       -0.09820000       1.90940000      -0.97580000
H       -0.91980000       1.86250000       0.59500000
H        1.32890000      -1.63040000      -0.79870000
H        2.20000000      -0.08210000      -0.32330000
H        1.98320000      -0.33530000       2.53920000
