15
Properties=species:S:1:pos:R:3 gdb_67423=T pbc="F F F"
O       -0.21630000       1.38090000       0.00100000
C       -0.02150000       0.03800000       0.01230000
C        0.07850000      -1.02370000      -1.02280000
N        1.28990000      -1.58570000      -0.46300000
C        0.91710000      -0.96040000       0.83940000
C       -0.37020000      -1.68470000       1.32720000
C       -1.06000000      -1.06640000       0.11290000
C       -2.43620000      -1.02750000      -0.22610000
N       -3.56010000      -1.00400000      -0.50720000
H        0.47840000       1.79500000      -0.52520000
H       -0.19500000      -1.03690000      -2.06970000
H        1.30990000      -2.60590000      -0.42920000
H        1.72540000      -0.71130000       1.52280000
H       -0.32690000      -2.77630000       1.40340000
H       -0.75260000      -1.25630000       2.25600000
