21
Properties=species:S:1:pos:R:3 gdb_38666=T pbc="F F F"
C       -0.00210000       1.46420000       0.15200000
C        1.34390000       0.80490000      -0.02120000
C        1.76490000       0.10310000       1.27160000
C        0.43510000      -0.74600000       1.21480000
C        0.65050000      -2.20960000       0.99340000
C        0.51700000      -2.80510000      -0.19380000
C        0.11010000      -2.10040000      -1.46440000
C       -0.60990000      -0.76330000      -1.20280000
C        0.04800000      -0.01400000      -0.08110000
H       -0.29810000       1.86760000       1.11920000
H       -0.33670000       2.05650000      -0.69500000
H        2.00870000       1.08830000      -0.82950000
H        2.65020000      -0.52620000       1.15710000
H        1.89660000       0.74510000       2.14950000
H       -0.23900000      -0.57840000       2.06540000
H        0.95960000      -2.79480000       1.85760000
H        0.72530000      -3.86950000      -0.27850000
H        1.00690000      -1.92150000      -2.07570000
H       -0.52780000      -2.75860000      -2.06720000
H       -0.63790000      -0.15840000      -2.11630000
H       -1.65480000      -0.96770000      -0.93040000
