19
Properties=species:S:1:pos:R:3 gdb_41451=T pbc="F F F"
C        0.07430000       1.49650000      -0.18270000
O        1.52870000       1.42670000       0.07740000
C        1.29690000       0.20670000       0.84210000
C        1.11180000       0.34470000       2.34950000
C        0.02570000      -0.74980000       2.55260000
C       -0.14210000      -1.23310000       1.11110000
C        1.31680000      -1.31300000       0.43710000
C        0.69750000      -0.94250000      -0.91300000
C       -0.01890000      -0.01820000       0.11070000
H       -0.41610000       2.16550000       0.53310000
H       -0.13530000       1.81460000      -1.20770000
H        2.03230000       0.14440000       2.90550000
H        0.76680000       1.34410000       2.62780000
H        0.35220000      -1.56360000       3.20720000
H       -0.90300000      -0.34630000       2.96710000
H       -0.84260000      -2.04630000       0.90810000
H        2.05890000      -2.08900000       0.65650000
H        1.35630000      -0.44230000      -1.62480000
H        0.07850000      -1.70060000      -1.40000000
