16
Properties=species:S:1:pos:R:3 gdb_124679=T pbc="F F F"
C       -0.03190000       1.44940000       0.17620000
C       -0.00010000      -0.06440000      -0.02810000
C       -1.39750000      -0.69800000       0.01100000
O       -2.36350000      -0.15120000       0.46710000
N        0.68060000      -0.47190000      -1.25160000
C        0.30730000      -0.22720000      -2.54750000
N        1.16060000      -0.75310000      -3.38720000
N        2.14160000      -1.37320000      -2.63760000
C        1.83530000      -1.19540000      -1.38000000
H        0.98310000       1.84870000       0.22900000
H       -0.56110000       1.94300000      -0.64280000
H       -0.56190000       1.68080000       1.10190000
H        0.55520000      -0.53510000       0.79510000
H       -1.43950000      -1.72510000      -0.41320000
H       -0.57700000       0.33200000      -2.81250000
H        2.39710000      -1.55460000      -0.53110000
