18
Properties=species:S:1:pos:R:3 gdb_99819=T pbc="F F F"
C        0.26770000       1.50120000      -0.07120000
C        0.04370000      -0.00650000       0.05810000
C       -1.44990000      -0.40180000       0.06500000
O       -2.13490000       0.12040000      -1.08540000
C       -1.59470000      -1.85940000       0.10820000
C       -1.70520000      -3.05630000       0.08820000
C       -2.13760000       0.18700000       1.33630000
N       -3.37630000       0.68160000       1.11240000
O       -1.58400000       0.15880000       2.41610000
H        1.33710000       1.72010000      -0.13950000
H       -0.22110000       1.89520000      -0.96600000
H       -0.12550000       2.03230000       0.80040000
H        0.52240000      -0.53910000      -0.77160000
H        0.48090000      -0.38270000       0.98620000
H       -2.01180000      -0.50610000      -1.80600000
H       -1.80780000      -4.11360000       0.09310000
H       -3.71920000       0.75420000       0.16990000
H       -3.86880000       1.11150000       1.87720000
