19
Properties=species:S:1:pos:R:3 gdb_80771=T pbc="F F F"
O       -0.34190000       1.72550000       0.26780000
C       -0.15520000       0.34570000       0.22420000
C       -0.44600000      -0.63720000       1.31220000
C       -1.74310000      -0.27300000       2.03910000
C       -2.52540000      -0.35190000       0.67510000
C       -3.35790000       0.84380000       0.10370000
C       -3.63700000       1.95530000       1.08570000
O       -2.76820000       2.60410000       1.62680000
C       -1.21270000      -0.69130000      -0.04000000
H       -1.03180000       1.97820000       0.90090000
H        0.77010000       0.13410000      -0.30580000
H        0.30420000      -1.31600000       1.70140000
H       -2.07980000      -1.04980000       2.72840000
H       -1.74080000       0.67830000       2.57490000
H       -3.17940000      -1.22520000       0.70700000
H       -2.78420000       1.30270000      -0.70970000
H       -4.30310000       0.48610000      -0.31410000
H       -4.70230000       2.18100000       1.30350000
H       -1.13100000      -1.40290000      -0.85500000
