21
Properties=species:S:1:pos:R:3 gdb_109171=T pbc="F F F"
C       -0.04670000       1.51860000       0.11080000
C        0.02470000       0.00580000      -0.02520000
C        0.77550000      -0.46010000      -1.27800000
C        1.10840000      -1.92530000      -1.19110000
C        1.03520000      -2.59640000      -0.04380000
C        1.32540000      -4.06520000       0.08540000
O        1.52830000      -4.64430000      -1.18960000
C        0.64330000      -1.89620000       1.23600000
O        0.67560000      -0.48880000       1.14250000
H        0.96100000       1.93870000       0.18990000
H       -0.53950000       1.96000000      -0.76080000
H       -0.60590000       1.79830000       1.00760000
H       -0.99860000      -0.40790000      -0.06210000
H        0.16220000      -0.26250000      -2.16690000
H        1.69320000       0.13350000      -1.40290000
H        1.40950000      -2.44360000      -2.09500000
H        2.21270000      -4.20010000       0.72990000
H        0.48710000      -4.55310000       0.61600000
H        1.80480000      -5.55570000      -1.06190000
H       -0.35970000      -2.24030000       1.55480000
H        1.33540000      -2.16140000       2.04610000
