17
Properties=species:S:1:pos:R:3 gdb_51191=T pbc="F F F"
O       -0.16850000      -0.00170000       0.02690000
C       -0.02350000       1.19130000      -0.04560000
C        1.32800000       1.88630000      -0.05050000
C        1.45140000       2.85860000      -1.19280000
C        1.46200000       2.45270000      -2.69500000
C        2.06920000       3.83380000      -2.93050000
C        1.41190000       4.72570000      -1.86400000
O        0.45920000       3.93580000      -1.15450000
C        2.59790000       3.90470000      -1.49960000
H       -0.89310000       1.87900000      -0.10890000
H        1.42180000       2.44240000       0.89230000
H        2.11600000       1.12960000      -0.09150000
H        2.18660000       1.65840000      -2.89140000
H        0.49180000       2.20980000      -3.14000000
H        2.52300000       4.23260000      -3.82820000
H        1.25550000       5.79250000      -1.94750000
H        3.56690000       4.11810000      -1.07090000
