21
Properties=species:S:1:pos:R:3 gdb_108136=T pbc="F F F"
C       -0.26520000       1.50330000       0.03900000
C        0.11880000       0.01870000      -0.03350000
C        0.82680000      -0.46120000       1.20370000
C        2.23480000      -0.04800000       1.64870000
C        2.34210000      -1.38440000       2.45140000
C        1.84430000      -1.16950000       3.87950000
O        0.51750000      -0.64800000       3.71610000
C        0.09670000      -1.01340000       2.41780000
C        1.07090000      -1.89350000       1.71530000
H        0.62060000       2.13420000       0.16820000
H       -0.77300000       1.82510000      -0.87540000
H       -0.93340000       1.69490000       0.88470000
H       -0.78220000      -0.58790000      -0.19330000
H        0.75880000      -0.15260000      -0.91010000
H        2.92570000      -0.03080000       0.80070000
H        2.33970000       0.88150000       2.21980000
H        3.26930000      -1.94920000       2.36430000
H        1.81730000      -2.11180000       4.44850000
H        2.43430000      -0.43570000       4.43880000
H       -0.97260000      -1.17600000       2.34300000
H        0.88130000      -2.86440000       1.27550000
