20
Properties=species:S:1:pos:R:3 gdb_92563=T pbc="F F F"
O        0.00820000       1.43420000      -0.12650000
C        0.03470000       0.01120000      -0.02370000
C        0.70240000      -0.53730000       1.26330000
C       -0.45520000      -0.95450000       2.19410000
C       -1.00000000       0.18710000       3.07170000
C       -1.94770000       0.97150000       2.13480000
C       -2.33910000      -0.07130000       1.09070000
C       -1.38130000      -0.53990000       0.05130000
N       -1.59150000      -1.34030000       1.28540000
H        0.91410000       1.73640000      -0.24520000
H        0.53380000      -0.39920000      -0.91230000
H        1.29800000      -1.41930000       1.00660000
H        1.37750000       0.19590000       1.71640000
H       -0.18240000      -1.82420000       2.79640000
H       -1.57010000      -0.24090000       3.90270000
H       -0.20500000       0.80290000       3.50260000
H       -2.83200000       1.33610000       2.66370000
H       -1.44900000       1.82600000       1.67740000
H       -3.39710000      -0.19510000       0.87300000
H       -1.78790000      -0.97680000      -0.85690000
