21
Properties=species:S:1:pos:R:3 gdb_122230=T pbc="F F F"
C        0.14100000       1.26220000       0.38620000
O        0.02100000      -0.05850000      -0.08490000
C       -1.27090000      -0.59230000       0.10230000
C       -1.25860000      -2.02860000      -0.41890000
C       -2.57630000      -2.75170000      -0.22780000
C       -3.73860000      -2.32770000      -1.12190000
O       -4.95400000      -2.91840000      -0.72280000
C       -2.60950000      -4.09670000       0.35970000
O       -2.98040000      -2.94760000       1.14360000
H        1.16810000       1.58450000       0.19880000
H       -0.54690000       1.94710000      -0.13500000
H       -0.06230000       1.33120000       1.46670000
H       -1.54640000      -0.58800000       1.16920000
H       -2.01700000       0.02160000      -0.42980000
H       -0.99590000      -2.02240000      -1.48380000
H       -0.46300000      -2.56820000       0.10350000
H       -3.81120000      -1.22790000      -1.12620000
H       -3.54070000      -2.64310000      -2.15290000
H       -4.97430000      -2.83770000       0.24080000
H       -3.43180000      -4.76390000       0.11470000
H       -1.67810000      -4.57370000       0.65870000
