24
Properties=species:S:1:pos:R:3 gdb_120851=T pbc="F F F"
C        0.36110000       1.48600000       0.06740000
C        0.09650000      -0.01550000       0.20110000
C       -1.30080000      -0.41090000      -0.27940000
N       -1.47690000      -1.85980000      -0.18850000
C       -2.00850000      -2.41270000       1.05550000
C       -2.82050000      -2.43320000      -0.19260000
C       -4.09620000      -1.62560000      -0.33200000
O       -4.25550000      -0.70010000       0.72230000
C       -5.43290000       0.06360000       0.60280000
H        1.36370000       1.74610000       0.42030000
H        0.28190000       1.81230000      -0.97590000
H       -0.35860000       2.07130000       0.65070000
H        0.83860000      -0.58620000      -0.36880000
H        0.21090000      -0.32110000       1.24890000
H       -2.06360000       0.14450000       0.28580000
H       -1.41320000      -0.13160000      -1.33570000
H       -1.53060000      -3.31850000       1.42050000
H       -2.33190000      -1.71560000       1.82480000
H       -2.87970000      -3.36410000      -0.75660000
H       -4.10640000      -1.09910000      -1.30310000
H       -4.94650000      -2.32940000      -0.34660000
H       -5.47110000       0.74150000       1.45870000
H       -5.44310000       0.65790000      -0.32430000
H       -6.33160000      -0.57300000       0.61180000
