19
Properties=species:S:1:pos:R:3 gdb_41319=T pbc="F F F"
C        0.02340000       1.47640000      -0.00260000
O        1.47360000       1.46830000       0.01080000
C        1.50330000       0.03680000       0.05330000
C        2.52140000      -0.68610000      -0.81740000
C        2.80230000      -1.93530000      -0.00980000
C        2.25390000      -1.90620000       1.20840000
C        1.49140000      -0.63720000       1.46550000
C       -0.07290000      -0.72750000       1.40360000
C       -0.04950000      -0.06410000       0.00170000
H       -0.39740000       1.97990000       0.87730000
H       -0.35790000       1.96230000      -0.90860000
H        2.14100000      -0.89870000      -1.82410000
H        3.41970000      -0.06600000      -0.94800000
H        3.40170000      -2.75150000      -0.39890000
H        2.33900000      -2.70050000       1.94340000
H        1.89260000      -0.04500000       2.29390000
H       -0.44870000      -1.75360000       1.39890000
H       -0.61000000      -0.16480000       2.17260000
H       -0.60380000      -0.53560000      -0.80990000
