18
Properties=species:S:1:pos:R:3 gdb_63300=T pbc="F F F"
C       -0.09420000       1.51750000       0.05720000
C       -0.02050000      -0.00850000       0.07120000
C       -1.39200000      -0.64220000      -0.15410000
N        1.02100000      -0.53590000      -0.84830000
C        1.84860000      -1.04880000       0.10810000
O        2.92960000      -1.57100000       0.08640000
C        0.81740000      -0.67370000       1.22030000
C        1.35260000       0.08370000       2.40450000
O        0.95780000       1.15070000       2.80140000
H        0.88990000       1.96770000       0.19990000
H       -0.49260000       1.85410000      -0.90700000
H       -0.74870000       1.88470000       0.84970000
H       -1.82550000      -0.30240000      -1.10090000
H       -1.32230000      -1.73340000      -0.18470000
H       -2.08090000      -0.35810000       0.64750000
H        1.17540000      -0.38770000      -1.83580000
H        0.35610000      -1.59190000       1.60610000
H        2.17720000      -0.45560000       2.92070000
