20
Properties=species:S:1:pos:R:3 gdb_59033=T pbc="F F F"
C       -0.00360000       1.55170000       0.00260000
C       -0.00010000       0.01070000       0.02980000
C        0.76950000      -0.51670000       1.25660000
C       -1.40240000      -0.52960000       0.00330000
C       -1.99440000      -1.30520000      -0.91060000
C       -3.41990000      -1.60750000      -0.53020000
N       -3.54980000      -0.89780000       0.71960000
C       -2.40100000      -0.24200000       1.09300000
O       -2.25170000       0.42430000       2.10060000
H        1.02250000       1.93350000       0.00320000
H       -0.50640000       1.93020000      -0.89300000
H       -0.52190000       1.94430000       0.88090000
H        0.50620000      -0.34900000      -0.87570000
H        0.81700000      -1.61030000       1.25350000
H        1.79460000      -0.13210000       1.25550000
H        0.27800000      -0.19570000       2.17820000
H       -1.54930000      -1.69000000      -1.81970000
H       -4.12950000      -1.24770000      -1.29000000
H       -3.59060000      -2.68830000      -0.41600000
H       -4.38300000      -0.86950000       1.28160000
