16
Properties=species:S:1:pos:R:3 gdb_71276=T pbc="F F F"
O        0.05280000       1.39000000       0.00850000
C       -0.01860000       0.01420000       0.00760000
C        0.29210000      -0.75830000      -1.32650000
C       -0.85700000      -1.70960000      -0.99860000
C       -0.83560000      -2.06690000       0.47050000
O        0.38130000      -1.93680000       1.21910000
C        0.79050000      -0.64640000       1.09880000
N        1.70120000      -0.05350000       1.73880000
C       -1.38820000      -0.74680000       0.07230000
H        0.73580000       1.61920000       0.65940000
H        0.03260000      -0.10660000      -2.16330000
H        1.29820000      -1.16710000      -1.46710000
H       -1.40980000      -2.31270000      -1.70900000
H       -1.44560000      -2.87990000       0.83890000
H        2.15360000      -0.65060000       2.42990000
H       -2.36960000      -0.34410000       0.28230000
