17
Properties=species:S:1:pos:R:3 gdb_30883=T pbc="F F F"
C        0.07100000       1.20730000      -0.20550000
O       -0.19120000       0.07630000       0.63600000
C       -1.27120000      -0.64820000       0.29560000
C       -1.38270000      -1.95200000      -0.07020000
O       -0.39280000      -2.86630000      -0.26190000
C       -2.78500000      -2.21010000      -0.21570000
C       -3.42380000      -1.04220000       0.06700000
C       -4.85490000      -0.64390000       0.08250000
O       -2.51200000      -0.07460000       0.39200000
H        0.99460000       1.65780000       0.16160000
H        0.19680000       0.89400000      -1.24880000
H       -0.74350000       1.93560000      -0.14110000
H        0.44230000      -2.44610000      -0.02610000
H       -3.24140000      -3.14560000      -0.49770000
H       -5.16710000      -0.29360000       1.07330000
H       -5.05830000       0.16550000      -0.62870000
H       -5.47750000      -1.49950000      -0.18850000
