18
Properties=species:S:1:pos:R:3 gdb_42526=T pbc="F F F"
O        0.01640000       0.21170000      -0.72040000
C       -0.00550000       1.35470000      -0.34620000
C       -1.08160000       2.36600000      -0.05800000
C       -2.41460000       2.44320000      -0.76600000
C       -2.36780000       2.07800000       0.68420000
C       -0.01890000       3.46120000       0.18610000
C        1.06080000       2.38220000      -0.03640000
C        2.34230000       2.09810000       0.66350000
N        2.33670000       2.53400000      -0.73370000
H       -2.76970000       3.43100000      -1.03950000
H       -2.62450000       1.66120000      -1.48820000
H       -2.55100000       1.04570000       0.96340000
H       -2.68790000       2.81540000       1.41290000
H       -0.00190000       4.25120000      -0.56860000
H       -0.02630000       3.90950000       1.18260000
H        2.72580000       2.82950000       1.36980000
H        2.56630000       1.05970000       0.89480000
H        2.47010000       1.73310000      -1.35020000
