20
Properties=species:S:1:pos:R:3 gdb_119257=T pbc="F F F"
O       -3.79070000       0.81640000      -0.07060000
C       -3.42930000      -0.51090000      -0.41180000
C       -2.20070000      -0.86380000       0.42110000
C       -1.49500000      -2.17340000       0.09000000
C       -0.46070000      -2.58860000       1.13040000
C        0.70100000      -1.61730000       1.19640000
O        1.14710000      -1.14540000       2.21080000
C       -2.15940000      -3.23800000      -0.70930000
N       -1.05240000      -2.45540000      -1.29100000
H       -4.59590000       1.04300000      -0.54500000
H       -4.24710000      -1.21460000      -0.19520000
H       -3.20610000      -0.59210000      -1.48960000
H       -1.48550000      -0.03610000       0.32370000
H       -2.49770000      -0.87780000       1.47600000
H       -0.90170000      -2.68540000       2.12710000
H       -0.04560000      -3.56100000       0.83570000
H        1.13530000      -1.36960000       0.20210000
H       -1.93140000      -4.28270000      -0.51440000
H       -3.16480000      -3.06460000      -1.08060000
H       -1.42230000      -1.75950000      -1.93370000
