19
Properties=species:S:1:pos:R:3 gdb_10533=T pbc="F F F"
O       -1.58700000       1.70030000       0.66950000
C       -1.00950000       0.42350000       0.43520000
C       -2.08060000      -0.67520000       0.35440000
C       -1.55720000      -2.05050000      -0.02350000
C       -0.58060000      -2.71440000       0.93600000
O        0.71460000      -2.14690000       0.83870000
C       -2.38800000      -2.91800000      -0.89780000
N       -1.15990000      -2.29590000      -1.43010000
H       -1.92600000       1.70870000       1.57010000
H       -0.48940000       0.50700000      -0.52550000
H       -0.24970000       0.17140000       1.18420000
H       -2.59580000      -0.74260000       1.32360000
H       -2.83540000      -0.35570000      -0.37470000
H       -0.90430000      -2.57850000       1.97360000
H       -0.55070000      -3.79500000       0.73320000
H        0.94750000      -2.20540000      -0.09670000
H       -2.34490000      -3.99900000      -0.79590000
H       -3.34820000      -2.53460000      -1.23290000
H       -1.40620000      -1.49380000      -2.00550000
