16
Properties=species:S:1:pos:R:3 gdb_125385=T pbc="F F F"
C        0.00030000       1.53490000       0.06580000
C       -0.04860000       0.04100000       0.01990000
C       -0.04370000      -0.80610000      -1.06980000
N       -0.09360000      -2.07430000      -0.59590000
N       -0.14440000      -2.13050000       0.75450000
C       -0.10820000      -0.85650000       1.11230000
O       -0.15020000      -0.43890000       2.40720000
C        0.15980000      -1.32860000       3.39210000
N       -0.00860000      -0.97900000       4.59050000
H        0.86120000       1.88990000       0.64220000
H        0.07220000       1.95570000      -0.94060000
H       -0.89380000       1.95170000       0.54170000
H       -0.00760000      -0.59620000      -2.12760000
H       -0.12000000      -2.93260000      -1.11700000
H        0.54220000      -2.27670000       3.00850000
H        0.28860000      -1.73070000       5.20990000
