19
Properties=species:S:1:pos:R:3 gdb_31546=T pbc="F F F"
C        0.09380000       1.36050000       0.13040000
N       -0.05180000      -0.06750000      -0.10020000
C        0.61760000      -0.62990000      -1.14890000
N        1.17180000      -0.03390000      -2.15850000
C        1.63940000      -1.09060000      -2.95420000
C        2.34820000      -0.81980000      -4.23780000
C        1.34450000      -2.27130000      -2.36280000
C        1.56340000      -3.70500000      -2.67070000
O        0.67260000      -1.98050000      -1.17440000
H        1.11100000       1.64770000       0.43070000
H       -0.14560000       1.89390000      -0.79150000
H       -0.60960000       1.66530000       0.90840000
H       -0.10120000      -0.65460000       0.71830000
H        3.24280000      -0.21050000      -4.06810000
H        2.65370000      -1.74610000      -4.73110000
H        1.70610000      -0.26050000      -4.92730000
H        2.15730000      -4.20400000      -1.89500000
H        0.61750000      -4.25320000      -2.76030000
H        2.09900000      -3.80230000      -3.61790000
