23
Properties=species:S:1:pos:R:3 gdb_92045=T pbc="F F F"
C        0.11120000       1.60090000      -0.07810000
C        0.04000000       0.06990000       0.02850000
C        0.59080000      -0.56630000      -1.26700000
C        0.67550000      -2.08760000      -1.21320000
C        2.01260000      -2.75870000      -1.00380000
C        1.00190000      -2.69800000       0.12600000
C        1.17510000      -1.76800000       1.26660000
C        0.74180000      -0.50150000       1.26120000
C        0.88060000       0.36780000       2.48380000
H        1.14880000       1.94710000      -0.14710000
H       -0.40900000       1.93910000      -0.98040000
H       -0.35300000       2.09950000       0.77690000
H       -1.02530000      -0.19960000       0.11070000
H       -0.03390000      -0.25700000      -2.11280000
H        1.58550000      -0.14210000      -1.45280000
H       -0.03960000      -2.62140000      -1.83090000
H        2.19140000      -3.71910000      -1.47620000
H        2.88710000      -2.11980000      -0.93150000
H        0.52640000      -3.64450000       0.37300000
H        1.65540000      -2.16350000       2.16030000
H        1.34960000      -0.18380000       3.30300000
H        1.48240000       1.26360000       2.29100000
H       -0.09760000       0.72220000       2.83500000
