19
Properties=species:S:1:pos:R:3 gdb_66384=T pbc="F F F"
C        0.09070000       1.52690000       0.18780000
C        0.00060000       0.00130000       0.08670000
C        0.60060000      -0.50750000      -1.23020000
O        0.74520000      -1.91630000      -1.23210000
C        1.54120000      -2.34770000      -0.14150000
C        0.88820000      -1.93030000       1.16680000
O        0.70900000      -0.51700000       1.21220000
C       -1.48390000      -0.37400000       0.20600000
O       -2.26020000      -0.38640000      -0.71150000
H        1.14080000       1.83060000       0.18370000
H       -0.42880000       1.99650000      -0.65140000
H       -0.36110000       1.87560000       1.12100000
H       -0.06950000      -0.25790000      -2.05560000
H        1.57690000      -0.02190000      -1.39050000
H        1.61650000      -3.43690000      -0.21100000
H        2.55380000      -1.91680000      -0.20950000
H       -0.07870000      -2.44770000       1.26880000
H        1.51100000      -2.18860000       2.02820000
H       -1.79900000      -0.58130000       1.25500000
