23
Properties=species:S:1:pos:R:3 gdb_96353=T pbc="F F F"
C       -0.00990000       1.57270000      -0.13190000
C        0.05870000       0.04750000      -0.00320000
C        0.66970000      -0.57230000      -1.26810000
O        0.73660000      -1.98530000      -1.17260000
C        1.48510000      -2.36130000      -0.04780000
O        0.93020000      -1.90380000       1.15280000
C        0.80200000      -0.46770000       1.26330000
C        2.18560000       0.17290000       1.46950000
C       -0.04930000      -0.27550000       2.51940000
H        0.98120000       2.01340000      -0.28140000
H       -0.62650000       1.85350000      -0.99250000
H       -0.45290000       2.03790000       0.75300000
H       -0.96260000      -0.34670000       0.06940000
H        0.05000000      -0.34540000      -2.14070000
H        1.67530000      -0.15790000      -1.45820000
H        1.46970000      -3.45260000      -0.00150000
H        2.52680000      -2.00870000      -0.16210000
H        2.81260000       0.13860000       0.57500000
H        2.08660000       1.22190000       1.76170000
H        2.70970000      -0.35630000       2.27030000
H        0.46550000      -0.69860000       3.38690000
H       -0.23840000       0.78340000       2.71540000
H       -1.00710000      -0.79070000       2.40820000
