16
Properties=species:S:1:pos:R:3 gdb_124931=T pbc="F F F"
C        0.08350000       1.51020000      -0.00930000
C       -0.05990000       0.03070000      -0.05880000
C       -1.12320000      -0.81640000       0.01920000
C       -2.57770000      -0.52170000       0.18970000
C       -0.51380000      -2.10940000      -0.10320000
N        0.79700000      -2.02950000      -0.24180000
O        1.08070000      -0.67740000      -0.21350000
C       -1.17770000      -3.36220000      -0.08570000
C       -1.79040000      -4.39710000      -0.06450000
H        0.72440000       1.81420000       0.82490000
H        0.53770000       1.89080000      -0.93000000
H       -0.89230000       1.98310000       0.11520000
H       -3.16360000      -0.91210000      -0.64930000
H       -2.97360000      -0.98560000       1.09950000
H       -2.76140000       0.55370000       0.25490000
H       -2.31450000      -5.32070000      -0.04790000
