15
Properties=species:S:1:pos:R:3 gdb_46446=T pbc="F F F"
O       -0.00130000      -0.00950000       0.08110000
C       -0.03030000       1.18990000      -0.00780000
C       -1.27480000       2.08260000      -0.08730000
C       -0.82840000       3.34010000      -0.86460000
C        0.68910000       3.39190000      -0.68140000
O        1.06420000       3.25030000       0.69620000
C        1.17290000       2.09140000      -0.14540000
C        1.49260000       4.25380000      -1.49800000
C        2.12140000       4.99480000      -2.20490000
H       -2.09540000       1.54000000      -0.55910000
H       -1.58380000       2.33250000       0.93260000
H       -1.05380000       3.24600000      -1.93120000
H       -1.29420000       4.26140000      -0.50580000
H        2.16880000       1.69470000      -0.31250000
H        2.69040000       5.64570000      -2.82220000
