16
Properties=species:S:1:pos:R:3 gdb_27558=T pbc="F F F"
O       -0.02390000       1.30130000       0.15880000
C       -0.00540000      -0.03810000       0.03920000
N       -0.22650000      -0.73380000      -1.04270000
C       -0.09020000      -2.05970000      -0.63890000
C        0.21280000      -2.13060000       0.68830000
N        0.26530000      -0.80470000       1.12090000
N       -0.24760000      -3.16260000      -1.49980000
C       -1.25210000      -3.03170000      -2.56690000
C        0.19390000      -2.98410000      -2.89200000
H       -0.23380000       1.64720000      -0.71740000
H        0.38990000      -2.96280000       1.34590000
H        0.46340000      -0.46930000       2.04740000
H       -1.83180000      -3.92990000      -2.75990000
H       -1.79870000      -2.09470000      -2.61740000
H        0.60660000      -2.01550000      -3.15810000
H        0.69050000      -3.84690000      -3.32700000
