20
Properties=species:S:1:pos:R:3 gdb_122864=T pbc="F F F"
C       -0.16200000       1.32580000      -0.01260000
O       -0.03470000      -0.07570000       0.01740000
C        0.55870000      -0.59700000      -1.14670000
C        0.60520000      -2.10440000      -1.04340000
O       -0.73900000      -2.60190000      -1.15760000
C       -0.88880000      -3.93190000      -1.02140000
O        0.02110000      -4.70020000      -0.83030000
C       -2.35750000      -4.33110000      -1.14430000
N       -2.62500000      -5.75090000      -0.99990000
H        0.81680000       1.82420000      -0.10060000
H       -0.79340000       1.66090000      -0.85050000
H       -0.62970000       1.63100000       0.92620000
H       -0.00790000      -0.30150000      -2.04540000
H        1.58960000      -0.22040000      -1.26690000
H        1.22060000      -2.52800000      -1.84360000
H        1.02910000      -2.41430000      -0.08430000
H       -2.92400000      -3.76470000      -0.39630000
H       -2.72100000      -3.97870000      -2.11700000
H       -2.06290000      -6.26170000      -1.67560000
H       -2.27990000      -6.06020000      -0.09510000
