14
Properties=species:S:1:pos:R:3 gdb_5037=T pbc="F F F"
C       -0.03140000       1.45430000       0.00020000
N       -0.04650000      -0.00460000       0.00660000
C       -1.18650000      -0.70870000      -0.15260000
C       -1.16750000      -2.07250000      -0.14160000
C        0.10040000      -2.67590000       0.04410000
N        1.22370000      -2.02840000       0.20130000
C        1.22210000      -0.64710000       0.19250000
O        2.20510000       0.05060000       0.32910000
H        0.62040000       1.81450000      -0.79880000
H       -1.04760000       1.82330000      -0.14770000
H        0.37050000       1.82490000       0.94570000
H       -2.09380000      -0.12880000      -0.28630000
H       -2.07060000      -2.65200000      -0.26760000
H        0.16960000      -3.76430000       0.06080000
