15
Properties=species:S:1:pos:R:3 gdb_28733=T pbc="F F F"
N        0.13970000       1.39850000       0.04140000
C       -0.01950000       0.02120000      -0.02800000
C       -1.04700000      -0.83050000       0.24160000
C       -0.50960000      -2.16110000       0.10260000
C        0.78380000      -2.00390000      -0.25030000
O        1.74530000      -2.87680000      -0.62360000
C        2.83600000      -2.98570000       0.19840000
N        3.80190000      -3.70210000      -0.16390000
O        1.11130000      -0.67240000      -0.33590000
H        0.69690000       1.76940000      -0.71950000
H       -0.74690000       1.88120000       0.09470000
H       -2.05610000      -0.55820000       0.50540000
H       -1.02290000      -3.09970000       0.23210000
H        2.72460000      -2.41040000       1.12400000
H        4.52590000      -3.70000000       0.55170000
