19
Properties=species:S:1:pos:R:3 gdb_80410=T pbc="F F F"
C       -0.03690000       1.54010000       0.01270000
C        0.03650000       0.01530000      -0.04540000
C        0.99160000      -0.56210000      -1.11200000
C        1.17430000      -2.04070000      -0.71680000
C        1.94310000      -1.34130000       0.43790000
C        3.05850000      -1.93010000       1.24290000
O        2.30490000      -0.27610000      -0.52080000
C        0.79390000      -0.60440000       1.15510000
O        0.57700000      -0.50210000       2.33100000
H        0.96860000       1.96810000      -0.02170000
H       -0.61590000       1.94030000      -0.82550000
H       -0.51390000       1.86030000       0.94340000
H       -0.97000000      -0.41560000      -0.10690000
H        0.89060000      -0.22690000      -2.14380000
H        0.29260000      -2.64470000      -0.48450000
H        1.86020000      -2.56980000      -1.38030000
H        3.81430000      -2.38540000       0.59800000
H        3.53290000      -1.15590000       1.85310000
H        2.66200000      -2.69220000       1.92060000
