17
Properties=species:S:1:pos:R:3 gdb_53425=T pbc="F F F"
C       -0.10300000       1.43300000       0.12330000
C        0.01860000      -0.01660000       0.07300000
C        0.12020000      -1.21500000       0.01400000
C        0.22440000      -2.66910000      -0.03170000
C        0.67340000      -3.29480000       1.30480000
C       -0.66620000      -3.47790000       2.02850000
O       -1.62850000      -3.73460000       0.99080000
C       -1.18380000      -3.28940000      -0.21300000
O       -1.81940000      -3.38970000      -1.21800000
H        0.36610000       1.89880000      -0.75010000
H       -1.15410000       1.74090000       0.13930000
H        0.37820000       1.84320000       1.01780000
H        0.84530000      -2.97930000      -0.87630000
H        1.13780000      -4.26780000       1.11880000
H        1.37370000      -2.67090000       1.86060000
H       -0.68450000      -4.32620000       2.71500000
H       -0.96610000      -2.57320000       2.56850000
