17
Properties=species:S:1:pos:R:3 gdb_27093=T pbc="F F F"
C       -0.50050000       1.50310000       0.39440000
C       -0.12570000       0.07730000       0.14530000
C        0.26050000      -0.51820000      -1.03530000
C        0.41680000       0.03310000      -2.41600000
C        1.15930000      -0.80560000      -3.43000000
O        1.52500000      -1.94760000      -3.28400000
N        0.46980000      -1.84720000      -0.72120000
C        0.22120000      -1.98950000       0.60570000
N       -0.14530000      -0.85550000       1.15960000
H        0.01620000       1.88760000       1.27920000
H       -0.24520000       2.14320000      -0.45560000
H       -1.57600000       1.60980000       0.57910000
H       -0.55810000       0.23950000      -2.89330000
H        0.90910000       1.01560000      -2.39340000
H        1.33510000      -0.28050000      -4.39390000
H        0.83860000      -2.51850000      -1.37760000
H        0.32640000      -2.93680000       1.11330000
