18
Properties=species:S:1:pos:R:3 gdb_93379=T pbc="F F F"
C        0.13040000       1.55040000      -0.12190000
C        0.03330000       0.03580000      -0.01160000
O        0.58790000      -0.52550000      -1.19270000
C        0.58320000      -1.94960000      -1.16290000
C        1.61690000      -2.39650000      -0.13800000
O        2.51510000      -3.16510000      -0.37090000
N        1.45930000      -1.77940000       1.12010000
C        2.20340000      -0.54770000       1.39990000
C        0.71900000      -0.52480000       1.22880000
H        1.17550000       1.86240000      -0.19760000
H       -0.40250000       1.89890000      -1.01020000
H       -0.31190000       2.02580000       0.75870000
H       -1.03040000      -0.25630000       0.04850000
H       -0.41920000      -2.33960000      -0.92390000
H        0.88210000      -2.30180000      -2.15050000
H        2.63920000      -0.47210000       2.39170000
H        2.81640000      -0.15610000       0.59260000
H        0.11610000      -0.45890000       2.13330000
