18
Properties=species:S:1:pos:R:3 gdb_89778=T pbc="F F F"
O        0.46020000       0.67130000      -0.84060000
C       -0.03640000      -0.26970000       0.05650000
C       -0.07020000       0.05230000       1.58110000
C       -1.43450000      -0.63650000       1.63720000
C       -1.80830000      -1.78410000       2.49160000
N       -2.50750000      -0.48590000       2.59970000
C       -1.59840000      -0.53680000       0.10200000
C       -2.34900000       0.61970000      -0.34380000
C       -2.89110000       1.62410000      -0.72770000
H       -0.18920000       1.38540000      -0.90290000
H        0.49260000      -1.20650000      -0.13510000
H        0.73690000      -0.34130000       2.20330000
H       -0.15560000       1.13310000       1.73870000
H       -2.41500000      -2.59350000       2.09330000
H       -1.11740000      -2.07810000       3.27840000
H       -2.18290000       0.02950000       3.41450000
H       -1.94060000      -1.44340000      -0.40470000
H       -3.42040000       2.48520000      -1.05390000
