19
Properties=species:S:1:pos:R:3 gdb_68090=T pbc="F F F"
C       -0.01830000       1.51520000       0.00730000
C        0.00480000      -0.00340000       0.00820000
C        0.70840000      -0.73800000      -1.18270000
C        0.39060000      -2.13730000      -0.59840000
O        0.85640000      -3.21180000      -1.37110000
C        1.01390000      -1.94370000       0.80480000
C        0.78220000      -0.68310000       1.16160000
C       -1.14130000      -1.97730000      -0.44760000
C       -1.36610000      -0.71640000      -0.08740000
H        0.99660000       1.92630000       0.01060000
H       -0.53510000       1.90260000      -0.87690000
H       -0.53670000       1.90260000       0.89170000
H        0.22350000      -0.56080000      -2.14650000
H        1.78150000      -0.53650000      -1.24080000
H        0.61220000      -4.03200000      -0.93060000
H        1.50040000      -2.73360000       1.36320000
H        1.03190000      -0.18840000       2.09210000
H       -1.84870000      -2.78570000      -0.58300000
H       -2.30950000      -0.24020000       0.14950000
