18
Properties=species:S:1:pos:R:3 gdb_73325=T pbc="F F F"
O        0.20940000       1.42400000       0.13370000
C        0.03140000       0.04740000       0.06520000
C        0.85900000      -0.72690000       1.13170000
C        0.48770000      -2.23290000       0.84650000
C       -0.45900000      -1.94500000      -0.31110000
C       -1.44060000      -2.30980000      -1.44220000
N       -1.41130000      -0.77810000      -1.56700000
C       -1.31650000      -0.68780000      -0.02110000
C        0.09780000      -0.81160000      -1.20860000
H       -0.33230000       1.82770000      -0.55340000
H        1.92760000      -0.52950000       1.00860000
H        0.57920000      -0.41150000       2.14070000
H        1.35840000      -2.83140000       0.56500000
H        0.00440000      -2.71280000       1.70190000
H       -1.04650000      -2.82780000      -2.32240000
H       -2.42270000      -2.70730000      -1.16690000
H       -2.21300000      -0.62790000       0.59960000
H        0.86300000      -0.89720000      -1.98290000
