18
Properties=species:S:1:pos:R:3 gdb_87599=T pbc="F F F"
C       -0.18210000       1.42570000      -0.10080000
N        0.05100000      -0.00650000       0.02690000
C        1.40670000      -0.49210000      -0.14870000
C        0.76100000      -0.51190000       1.20510000
C        1.26630000       0.32580000       2.33830000
C        1.19480000      -0.33300000       3.50030000
C        0.56240000      -1.67460000       3.29340000
O       -0.79420000      -1.58330000       2.79750000
C        0.26550000      -1.78240000       1.85730000
H        0.68160000       2.05230000       0.17200000
H       -0.43920000       1.64330000      -1.14230000
H       -1.03020000       1.70970000       0.52880000
H        1.51970000      -1.41610000      -0.71240000
H        2.20350000       0.23620000      -0.30060000
H        1.61940000       1.34140000       2.21190000
H        1.50600000       0.04340000       4.46640000
H        0.76620000      -2.52350000       3.93820000
H        0.23670000      -2.71430000       1.30010000
