20
Properties=species:S:1:pos:R:3 gdb_22425=T pbc="F F F"
C       -0.02050000       1.51640000       0.04300000
C       -0.02900000       0.01610000       0.04010000
C        1.14530000      -0.82950000      -0.34250000
C        0.58900000      -0.98390000       1.06740000
C        1.41380000      -0.78330000       2.30590000
C       -0.67060000      -1.77050000       0.97980000
C       -1.30380000      -0.85030000      -0.05680000
N       -1.07500000      -2.72330000       1.71170000
O       -2.38990000      -3.10250000       1.35780000
H        0.95920000       1.90870000       0.33490000
H       -0.24790000       1.91310000      -0.95410000
H       -0.76610000       1.92000000       0.73720000
H        1.04880000      -1.63120000      -1.07090000
H        2.10050000      -0.31260000      -0.37860000
H        2.12290000       0.04080000       2.17810000
H        0.77940000      -0.56180000       3.17010000
H        1.99090000      -1.68400000       2.54250000
H       -2.20110000      -0.36880000       0.34470000
H       -1.54130000      -1.27480000      -1.03740000
H       -2.57020000      -3.80650000       1.98940000
