16
Properties=species:S:1:pos:R:3 gdb_99402=T pbc="F F F"
C       -0.38920000      -0.72200000      -1.31570000
N        0.06130000      -0.10870000      -0.07020000
C        0.49280000      -0.70890000       1.07360000
N        0.88370000      -0.13500000       2.15580000
C        0.88300000       1.30910000       2.21280000
C        0.54080000      -2.20680000       1.14180000
O        0.22670000      -2.96700000       0.25840000
C        1.02500000      -2.73500000       2.43330000
N        1.38180000      -3.29880000       3.37780000
H       -1.26690000      -1.35540000      -1.16740000
H       -0.65490000       0.08720000      -1.99930000
H        0.39130000      -1.32880000      -1.78050000
H        0.05570000       0.89630000      -0.04580000
H        1.53980000       1.75410000       1.44700000
H       -0.12570000       1.72880000       2.06280000
H        1.23970000       1.63690000       3.19100000
