20
Properties=species:S:1:pos:R:3 gdb_95584=T pbc="F F F"
C       -0.16150000       1.65570000       0.09840000
C       -0.00460000       0.13830000       0.02860000
O        0.51450000      -0.26760000      -1.25060000
C        1.75190000       0.11420000      -1.68000000
N        2.87850000       0.11980000      -1.11520000
C        3.13050000      -0.39000000       0.22350000
C        2.19670000       0.04820000       1.35750000
C        0.77070000      -0.47540000       1.20430000
O       -0.02970000      -0.19700000       2.34860000
H        0.79270000       2.17020000      -0.04470000
H       -0.84960000       1.99320000      -0.68080000
H       -0.56500000       1.93460000       1.07410000
H       -0.99880000      -0.31670000       0.04990000
H        1.69480000       0.40270000      -2.73120000
H        3.12770000      -1.48970000       0.16900000
H        4.15360000      -0.10320000       0.48700000
H        2.61100000      -0.34450000       2.29690000
H        2.19250000       1.13910000       1.45240000
H        0.81600000      -1.56270000       1.02420000
H        0.42960000      -0.53400000       3.12380000
