17
Properties=species:S:1:pos:R:3 gdb_5620=T pbc="F F F"
C        0.03310000       1.36400000       0.06930000
N       -0.09910000      -0.07700000      -0.03780000
C        0.58250000      -0.69990000      -1.09320000
C        1.20670000      -0.12050000      -2.17830000
N        1.68610000      -1.14500000      -2.97210000
C        1.37070000      -2.35520000      -2.41860000
C        0.68860000      -2.12200000      -1.24540000
N        0.16920000      -3.11950000      -0.37140000
H        1.07920000       1.71190000       0.11960000
H       -0.43190000       1.83810000      -0.80240000
H       -0.49430000       1.71340000       0.96070000
H        0.08410000      -0.54340000       0.84200000
H        1.34680000       0.91090000      -2.45350000
H        2.16630000      -1.01700000      -3.84330000
H        1.64530000      -3.28650000      -2.88630000
H        0.79720000      -3.31840000       0.40210000
H       -0.71140000      -2.81350000       0.03100000
