16
Properties=species:S:1:pos:R:3 gdb_87943=T pbc="F F F"
O       -0.02270000       1.38850000      -0.03020000
C       -0.00840000      -0.00720000      -0.02640000
C       -0.49220000      -0.76980000       1.19930000
C       -1.34530000      -0.66070000      -0.03390000
C       -2.64880000       0.13560000      -0.09730000
N       -3.51700000      -0.86260000      -0.69010000
C       -2.82640000      -1.92280000      -1.22440000
O       -3.23980000      -2.81500000      -1.90910000
O       -1.51470000      -1.82020000      -0.82730000
H        0.69680000       1.70010000       0.52920000
H        0.76930000      -0.47980000      -0.62530000
H       -0.02910000      -1.72810000       1.40670000
H       -0.79650000      -0.19250000       2.06670000
H       -2.99290000       0.44420000       0.89450000
H       -2.53920000       1.03290000      -0.71900000
H       -4.42320000      -0.64730000      -1.06960000
