20
Properties=species:S:1:pos:R:3 gdb_50565=T pbc="F F F"
O       -0.23120000       0.12300000      -0.35230000
C        0.49390000       0.72460000       0.39770000
C        1.21390000       2.02730000       0.06780000
C        0.80310000       2.61610000      -1.30540000
C        0.84590000       4.16760000      -1.32450000
C        0.70110000       4.73770000       0.09550000
C        1.84140000       4.17570000       0.97210000
N        1.01540000       2.93980000       1.21340000
C       -0.19570000       3.80440000       0.94530000
H        0.69210000       0.37230000       1.43320000
H        2.28350000       1.76610000       0.07740000
H        1.42970000       2.19800000      -2.09750000
H       -0.21010000       2.26900000      -1.52410000
H        1.78730000       4.52950000      -1.75520000
H        0.04440000       4.54320000      -1.96970000
H        0.51090000       5.81450000       0.09780000
H        2.81610000       3.99630000       0.50580000
H        1.98340000       4.71520000       1.91390000
H       -0.52730000       4.25810000       1.88350000
H       -1.04300000       3.30010000       0.47240000
