20
Properties=species:S:1:pos:R:3 gdb_115744=T pbc="F F F"
O        0.00150000       1.39930000      -0.15490000
C       -0.01240000       0.06980000       0.33250000
C       -1.38130000      -0.54530000       0.08140000
O       -1.68500000      -0.49180000      -1.34110000
C       -1.64850000      -1.93260000      -1.44860000
C       -1.51200000      -2.09030000       0.07900000
N       -0.35990000      -2.84050000       0.53240000
C       -0.39750000      -3.31160000       1.91630000
C       -0.58190000      -4.26300000       0.78840000
H       -0.31480000       1.34300000      -1.06550000
H        0.76500000      -0.54810000      -0.13700000
H        0.19760000       0.11490000       1.40660000
H       -2.14520000      -0.00400000       0.65220000
H       -2.56070000      -2.32850000      -1.90770000
H       -0.77170000      -2.28790000      -2.00310000
H       -2.44590000      -2.42930000       0.55490000
H        0.54520000      -3.26690000       2.45280000
H       -1.27560000      -3.07050000       2.51320000
H       -1.58390000      -4.65900000       0.63060000
H        0.22330000      -4.92610000       0.48710000
