16
Properties=species:S:1:pos:R:3 gdb_11279=T pbc="F F F"
O       -0.11430000       1.45740000      -0.20980000
C        0.05290000       0.06400000       0.06200000
C       -1.27510000      -0.73660000       0.13960000
C       -1.38470000      -1.52520000      -1.18630000
C        0.02720000      -1.46040000      -1.75230000
C        0.80800000      -0.62800000      -1.04450000
C        0.40090000      -2.19790000      -2.90180000
C        0.67120000      -2.84740000      -3.88030000
H       -0.41760000       1.53840000      -1.12120000
H        0.58750000       0.04610000       1.01690000
H       -1.23090000      -1.43360000       0.98170000
H       -2.11530000      -0.06120000       0.31620000
H       -1.70720000      -2.55980000      -1.03360000
H       -2.09760000      -1.08480000      -1.89440000
H        1.84230000      -0.40130000      -1.27360000
H        0.92570000      -3.41290000      -4.74220000
