19
Properties=species:S:1:pos:R:3 gdb_119663=T pbc="F F F"
C       -0.08810000       1.36600000       0.07160000
O       -0.05020000      -0.03970000       0.00970000
C        0.72320000      -0.61260000       1.04500000
C        0.69030000      -2.10140000       0.89360000
C        1.18990000      -3.01520000      -0.24760000
C        0.60340000      -4.02000000       0.76890000
C        1.05640000      -3.15790000       1.98800000
O       -0.25500000      -3.13240000       2.62490000
C       -0.52880000      -3.03660000       1.19300000
H        0.91700000       1.80720000      -0.02490000
H       -0.70690000       1.71370000      -0.75910000
H       -0.52770000       1.72230000       1.01670000
H        1.76220000      -0.24140000       1.00140000
H        0.31730000      -0.34320000       2.03500000
H        0.66910000      -2.92310000      -1.20360000
H        2.27210000      -3.05410000      -0.40320000
H        0.54110000      -5.10690000       0.72860000
H        1.94510000      -3.23770000       2.61500000
H       -1.56230000      -2.96130000       0.85730000
