18
Properties=species:S:1:pos:R:3 gdb_56696=T pbc="F F F"
C        0.09980000       1.43010000      -0.27100000
C        0.00680000      -0.07340000       0.05550000
C        0.64730000      -0.38590000       1.33280000
C        1.16800000      -0.63130000       2.38740000
C       -1.44570000      -0.57960000       0.02490000
C       -2.02510000      -1.03390000      -1.30710000
C       -1.69780000      -2.05060000      -0.25430000
C       -2.34760000       0.07910000       0.93740000
N       -3.07270000       0.61740000       1.66060000
H        1.14370000       1.75150000      -0.28510000
H       -0.34410000       1.63310000      -1.25000000
H       -0.43060000       2.02000000       0.48080000
H        0.53380000      -0.62760000      -0.73280000
H        1.62520000      -0.84880000       3.32100000
H       -3.06690000      -0.81140000      -1.50340000
H       -1.37350000      -0.95030000      -2.17010000
H       -0.81630000      -2.66870000      -0.38220000
H       -2.51480000      -2.52890000       0.27180000
