25
Properties=species:S:1:pos:R:3 gdb_120631=T pbc="F F F"
C        0.07980000       1.51340000      -0.20940000
C        0.22490000      -0.00630000      -0.09750000
C        0.48120000      -0.48310000       1.33910000
C        0.60930000      -1.98960000       1.44070000
C        1.92450000      -2.69350000       1.19300000
C        1.31690000      -2.69880000       2.57820000
C        1.99550000      -1.92250000       3.69150000
C        0.69020000      -3.99570000       3.04070000
O        1.71590000      -4.84730000       3.54090000
H        0.98700000       2.02490000       0.13160000
H       -0.10700000       1.82260000      -1.24270000
H       -0.75260000       1.87850000       0.40270000
H       -0.68260000      -0.49070000      -0.48200000
H        1.04540000      -0.34980000      -0.74010000
H        1.38840000       0.00190000       1.71830000
H       -0.33910000      -0.13720000       1.98410000
H       -0.26750000      -2.51320000       1.06130000
H        1.93110000      -3.61750000       0.62450000
H        2.80260000      -2.07360000       1.03840000
H        2.53490000      -1.04920000       3.31770000
H        1.26770000      -1.57400000       4.43490000
H        2.71320000      -2.56840000       4.20480000
H       -0.05720000      -3.78500000       3.82400000
H        0.16080000      -4.47220000       2.20030000
H        1.29740000      -5.60170000       3.96530000
