15
Properties=species:S:1:pos:R:3 gdb_55665=T pbc="F F F"
N       -0.07750000       1.29040000       0.03150000
C        0.03960000      -0.04110000       0.26810000
O        1.04560000      -0.54660000       0.73060000
C       -1.21180000      -0.86480000      -0.04500000
C       -0.85150000      -2.34420000      -0.24010000
C       -1.90240000      -3.30590000       0.33710000
O       -2.76270000      -2.96240000       1.09940000
C       -0.56200000      -2.69680000      -1.62810000
N       -0.36680000      -2.98970000      -2.72890000
H        0.70760000       1.88580000       0.23880000
H       -0.89480000       1.69430000      -0.39060000
H       -1.88800000      -0.80400000       0.81540000
H       -1.75150000      -0.46760000      -0.90860000
H        0.07050000      -2.51680000       0.34240000
H       -1.78270000      -4.36050000       0.01690000
