14
Properties=species:S:1:pos:R:3 gdb_472=T pbc="F F F"
O       -0.22650000       1.44820000      -0.22370000
C       -0.01200000       0.05680000      -0.01460000
C       -1.38590000      -0.61610000      -0.06670000
C       -1.58550000      -0.77030000      -1.57610000
O       -0.29310000      -1.07790000      -2.09940000
C        0.70720000      -0.61430000      -1.19860000
H        0.62770000       1.86590000      -0.37150000
H        0.51560000      -0.11830000       0.93300000
H       -1.34230000      -1.59520000       0.42040000
H       -2.15030000      -0.00800000       0.42020000
H       -2.26490000      -1.58310000      -1.84960000
H       -1.96210000       0.16540000      -2.01230000
H        1.37350000       0.09650000      -1.70820000
H        1.31550000      -1.46640000      -0.86320000
