14
Properties=species:S:1:pos:R:3 gdb_28852=T pbc="F F F"
O        0.05580000       1.29160000       0.41250000
C        0.00650000      -0.03130000       0.10330000
C       -1.20590000      -0.65010000       0.13940000
C       -1.48150000      -2.01150000      -0.20370000
C       -0.60830000      -3.03960000      -0.32980000
C        0.81840000      -2.96600000       0.02320000
O        1.38130000      -3.84100000       0.64440000
N        1.54900000      -1.87880000      -0.48260000
C        1.22040000      -0.64570000      -0.40760000
H        0.96670000       1.60310000       0.37130000
H       -2.05260000      -0.01920000       0.39310000
H       -2.53610000      -2.24210000      -0.33460000
H       -0.97590000      -4.03440000      -0.56100000
H        1.94190000       0.07090000      -0.82310000
