23
Properties=species:S:1:pos:R:3 gdb_100004=T pbc="F F F"
C        0.08310000       1.60100000      -0.20580000
C       -0.00720000       0.07870000      -0.06030000
C       -1.43860000      -0.46910000       0.13410000
C       -2.13220000       0.16000000       1.34650000
O       -2.25570000      -0.09380000      -0.98660000
C       -1.39860000      -2.02810000       0.19950000
C       -0.92810000      -2.61570000       1.54150000
C       -2.76630000      -2.59650000      -0.14550000
O       -2.98370000      -3.31090000      -1.09040000
H        1.09470000       1.89830000      -0.49760000
H       -0.61320000       1.95470000      -0.97080000
H       -0.15210000       2.11640000       0.73000000
H        0.40470000      -0.39370000      -0.96290000
H        0.62660000      -0.25490000       0.77010000
H       -2.28460000       1.22630000       1.16860000
H       -3.11440000      -0.28720000       1.51830000
H       -1.53300000       0.04250000       2.25290000
H       -1.91170000      -0.53430000      -1.77270000
H       -0.72830000      -2.37660000      -0.59640000
H        0.03270000      -2.19220000       1.84650000
H       -1.64970000      -2.42050000       2.34080000
H       -0.80340000      -3.69950000       1.46040000
H       -3.57960000      -2.33210000       0.56740000
