23
Properties=species:S:1:pos:R:3 gdb_116369=T pbc="F F F"
C       -0.06990000       1.38840000       0.11320000
O        0.05150000      -0.01150000       0.04980000
C        0.67520000      -0.50630000      -1.13240000
C        1.26900000      -1.86260000      -0.74470000
C        2.16010000      -2.54120000      -1.79260000
C        1.44270000      -2.98150000      -3.08320000
C        1.02940000      -1.84940000      -3.99400000
C        0.25920000      -0.81690000      -3.65020000
C       -0.34660000      -0.58450000      -2.28710000
H        0.91060000       1.88570000       0.04260000
H       -0.71720000       1.79980000      -0.67620000
H       -0.51650000       1.62990000       1.08140000
H        1.49020000       0.17630000      -1.42600000
H        1.84700000      -1.70770000       0.17290000
H        0.44000000      -2.53120000      -0.47550000
H        2.99490000      -1.87920000      -2.05570000
H        2.60490000      -3.42860000      -1.32640000
H        2.10030000      -3.66030000      -3.63590000
H        0.56030000      -3.57860000      -2.80720000
H        1.39620000      -1.89540000      -5.01700000
H        0.03880000      -0.06790000      -4.40720000
H       -1.06450000      -1.37980000      -2.04120000
H       -0.92050000       0.34660000      -2.30540000
