19
Properties=species:S:1:pos:R:3 gdb_86140=T pbc="F F F"
C        0.00320000       1.56450000      -0.03600000
C        0.08310000       0.03960000      -0.00990000
C        0.84970000      -0.57730000      -1.20930000
C        1.18170000      -2.00630000      -0.73620000
O        2.17070000      -2.68610000      -1.45270000
C        1.59080000      -1.72010000       0.69620000
O        2.56400000      -2.19860000       1.23150000
C        0.77310000      -0.55000000       1.25470000
O        1.64900000       0.36870000       1.87680000
H        1.00020000       2.00620000       0.02430000
H       -0.47300000       1.90310000      -0.96170000
H       -0.58130000       1.94720000       0.80590000
H       -0.93710000      -0.36430000      -0.02630000
H        0.27200000      -0.56150000      -2.13600000
H        1.78900000      -0.03970000      -1.38610000
H        0.24520000      -2.59320000      -0.71620000
H        2.84410000      -2.94190000      -0.80480000
H        0.02630000      -0.91960000       1.97530000
H        2.35640000      -0.15590000       2.27540000
