17
Properties=species:S:1:pos:R:3 gdb_16495=T pbc="F F F"
C       -0.08170000       1.60580000      -0.08600000
C        0.07160000       0.09950000       0.03120000
N        1.09130000      -0.61920000      -0.85750000
C        2.41930000       0.00430000      -0.45270000
C        2.25680000      -0.62710000       0.91310000
C        1.29390000      -1.61710000       0.30540000
C        0.73350000      -0.58320000       1.22010000
O        0.23510000      -0.80110000       2.48730000
H        0.80060000       2.15270000       0.25650000
H       -0.28060000       1.88820000      -1.12550000
H       -0.93230000       1.93880000       0.51830000
H       -0.88930000      -0.38480000      -0.17490000
H        3.21270000      -0.46080000      -1.04470000
H        2.48200000       1.09140000      -0.56110000
H        2.96880000      -0.79640000       1.71240000
H        1.23610000      -2.69360000       0.23900000
H        0.47960000      -0.05500000       3.04590000
