23
Properties=species:S:1:pos:R:3 gdb_103542=T pbc="F F F"
C        0.14300000       1.56200000       0.06930000
C        0.03210000       0.03300000       0.03370000
C       -1.40540000      -0.52720000      -0.01680000
C       -2.22910000      -0.02890000       1.19210000
C       -2.15000000      -0.21300000      -1.30710000
C       -2.85360000      -1.25290000      -1.75540000
C       -2.69110000      -2.45860000      -0.85870000
C       -1.42750000      -2.09860000      -0.03780000
O       -0.26840000      -2.66860000      -0.63010000
H        1.19450000       1.86550000       0.06180000
H       -0.33570000       2.02860000      -0.79840000
H       -0.31260000       1.98850000       0.96800000
H        0.59250000      -0.34550000      -0.82640000
H        0.53300000      -0.38540000       0.91600000
H       -2.42740000       1.04470000       1.12840000
H       -3.19810000      -0.53520000       1.24340000
H       -1.69610000      -0.21820000       2.13110000
H       -2.13720000       0.77110000      -1.76340000
H       -3.49690000      -1.24660000      -2.62870000
H       -3.57420000      -2.59910000      -0.22080000
H       -2.53910000      -3.40240000      -1.39350000
H       -1.45020000      -2.50560000       0.97700000
H       -0.26060000      -2.40290000      -1.55710000
