19
Properties=species:S:1:pos:R:3 gdb_79522=T pbc="F F F"
O        0.07930000       1.39780000       0.20920000
C       -0.01710000      -0.00290000       0.05560000
C       -1.42590000      -0.53090000      -0.19910000
C       -1.31060000      -1.96830000      -0.80280000
C       -2.59130000      -1.70540000      -1.63040000
C       -1.77380000      -0.39470000      -1.72020000
C       -0.47370000      -1.24460000      -1.90810000
C        0.68830000      -0.52000000      -1.25440000
O        1.10090000       0.55800000      -2.09070000
H        0.06530000       1.76080000      -0.68660000
H        0.42040000      -0.44380000       0.95810000
H       -2.19710000      -0.32030000       0.54360000
H       -1.03130000      -2.87920000      -0.26900000
H       -2.70560000      -2.27890000      -2.55510000
H       -3.53310000      -1.66260000      -1.07610000
H       -2.03400000       0.51880000      -2.25570000
H       -0.29720000      -1.74390000      -2.86190000
H        1.53630000      -1.18450000      -1.04410000
H        1.89040000       0.94650000      -1.69830000
