19
Properties=species:S:1:pos:R:3 gdb_50518=T pbc="F F F"
O        0.58750000       0.12920000       0.90290000
C        0.73370000       0.81460000      -0.07960000
C        1.32620000       2.19390000      -0.10190000
C        0.55030000       3.34130000      -0.82000000
C        1.09190000       4.30680000       0.27000000
C        1.41970000       3.09060000       1.16470000
C        0.60230000       2.79360000       2.44330000
C        1.98260000       2.65160000       3.10870000
O        2.64880000       3.08100000       1.89740000
H        0.41800000       0.44020000      -1.08250000
H        2.33280000       2.11020000      -0.53430000
H        0.81410000       3.55160000      -1.85720000
H       -0.53290000       3.20590000      -0.75260000
H        2.01750000       4.79580000      -0.04700000
H        0.40970000       5.05780000       0.67570000
H        0.02490000       3.65420000       2.78830000
H       -0.01830000       1.90080000       2.43280000
H        2.19970000       3.31750000       3.95050000
H        2.25740000       1.62450000       3.37410000
