23
Properties=species:S:1:pos:R:3 gdb_83876=T pbc="F F F"
C       -0.06510000       1.56350000      -0.04130000
C        0.01100000       0.03050000      -0.02000000
C        0.53770000      -0.53830000      -1.35180000
C        0.79980000      -2.04510000      -1.26010000
C        1.91440000      -2.35320000      -0.24840000
C        1.68740000      -1.69130000       1.10840000
C        2.25850000      -0.31040000       1.37660000
O        2.96870000       0.36100000       0.37320000
C        0.77790000      -0.47220000       1.20050000
H        0.93420000       1.99470000      -0.14970000
H       -0.68380000       1.91360000      -0.87520000
H       -0.50220000       1.95250000       0.88500000
H       -1.01290000      -0.35530000       0.09700000
H       -0.19840000      -0.32740000      -2.13680000
H        1.46260000      -0.02330000      -1.63260000
H       -0.12270000      -2.55760000      -0.95420000
H        1.07090000      -2.44700000      -2.24300000
H        2.00290000      -3.43500000      -0.10790000
H        2.87110000      -2.01920000      -0.67220000
H        1.67790000      -2.36660000       1.95890000
H        2.61910000      -0.10550000       2.38480000
H        3.84550000      -0.03370000       0.31110000
H        0.21270000      -0.37510000       2.12460000
