22
Properties=species:S:1:pos:R:3 gdb_121943=T pbc="F F F"
C       -0.13560000       1.43260000      -0.24610000
C       -0.05860000      -0.08040000      -0.13800000
O       -1.36560000      -0.58730000       0.06770000
C       -1.42830000      -1.99800000       0.15920000
C       -2.91070000      -2.36730000       0.22760000
O       -3.59420000      -1.78940000      -0.87250000
C       -3.10830000      -3.86930000       0.19310000
C       -4.37020000      -4.45180000      -0.31560000
N       -3.12260000      -4.57240000      -1.09830000
H        0.86240000       1.85320000      -0.39990000
H       -0.76850000       1.72760000      -1.08810000
H       -0.55660000       1.86220000       0.66720000
H        0.37380000      -0.51660000      -1.05330000
H        0.59250000      -0.37690000       0.70020000
H       -0.96670000      -2.46310000      -0.72650000
H       -0.89550000      -2.35990000       1.05270000
H       -3.31510000      -1.97300000       1.17520000
H       -3.21130000      -0.90970000      -0.98020000
H       -2.57240000      -4.39650000       0.98090000
H       -4.74270000      -5.38290000       0.10200000
H       -5.12930000      -3.76370000      -0.67310000
H       -3.15210000      -3.86160000      -1.82810000
