18
Properties=species:S:1:pos:R:3 gdb_114586=T pbc="F F F"
O       -0.05390000       1.39930000      -0.19520000
C        0.03780000       0.01940000       0.12400000
C       -1.35810000      -0.55920000      -0.01620000
C       -2.01790000      -0.63180000      -1.43290000
C       -2.22970000      -2.13990000      -1.25480000
C       -0.92510000      -2.83280000      -1.04620000
C       -1.53120000      -2.08590000       0.12750000
C       -1.88280000      -2.75110000       1.33830000
N       -2.17000000      -3.27320000       2.33150000
H        0.82160000       1.78900000      -0.11460000
H        0.73810000      -0.49820000      -0.55010000
H        0.39700000      -0.13760000       1.15370000
H       -2.02230000      -0.03900000       0.67770000
H       -2.94440000      -0.05980000      -1.48880000
H       -1.37910000      -0.34740000      -2.27400000
H       -3.13180000      -2.68670000      -1.49750000
H       -0.97020000      -3.91270000      -0.95870000
H       -0.01810000      -2.45650000      -1.51070000
