15
Properties=species:S:1:pos:R:3 gdb_1112=T pbc="F F F"
C        0.40490000       0.78920000       0.64460000
C       -0.61320000      -0.10330000      -0.02820000
O       -1.60780000      -0.51420000       0.52090000
C       -0.27550000      -0.52490000      -1.46700000
C        0.53760000      -1.82580000      -1.37400000
C       -0.27300000      -3.10200000      -1.37860000
O        1.73950000      -1.79830000      -1.25490000
H        1.40850000       0.37250000       0.50530000
H        0.40230000       1.77570000       0.16590000
H        0.17430000       0.89730000       1.70490000
H       -1.21130000      -0.68490000      -2.00580000
H        0.33920000       0.22880000      -1.96260000
H       -0.72640000      -3.24610000      -2.36640000
H        0.36140000      -3.95620000      -1.13970000
H       -1.09690000      -3.01680000      -0.66160000
