17
Properties=species:S:1:pos:R:3 gdb_126922=T pbc="F F F"
C       -0.12970000       1.45230000      -0.03830000
C        0.16310000      -0.04360000      -0.05990000
N        0.71700000      -0.47010000       1.22390000
C        0.88810000      -1.79010000       1.52080000
C        1.61480000      -2.43520000       2.48820000
C        1.28010000      -3.79180000       2.26310000
O        1.75070000      -4.82690000       2.97830000
N        0.44590000      -3.98000000       1.26720000
O        0.19460000      -2.66860000       0.78100000
H        0.78420000       2.03450000       0.12850000
H       -0.55150000       1.76900000      -0.99580000
H       -0.84110000       1.69980000       0.75470000
H       -0.75660000      -0.60920000      -0.22830000
H        0.84240000      -0.28730000      -0.89070000
H        1.42690000       0.13370000       1.61030000
H        2.26720000      -2.02200000       3.23660000
H        1.36060000      -5.63100000       2.60990000
