14
Properties=species:S:1:pos:R:3 gdb_129382=T pbc="F F F"
N        0.19750000       0.41110000      -1.24350000
C       -0.09890000       0.16120000       0.07620000
N        0.42650000       0.65430000       1.13050000
C       -1.22010000      -0.79850000       0.22140000
N       -1.80000000      -1.44400000      -0.75140000
C       -2.73860000      -2.18760000      -0.07480000
N       -3.55180000      -3.08100000      -0.71990000
N       -2.74530000      -2.00700000       1.22870000
O       -1.71160000      -1.07250000       1.42230000
H        1.09000000       0.82700000      -1.45370000
H       -0.17640000      -0.23030000      -1.92640000
H        1.18640000       1.29650000       0.89790000
H       -3.74270000      -2.84810000      -1.68220000
H       -4.36420000      -3.37010000      -0.19600000
