16
Properties=species:S:1:pos:R:3 gdb_30300=T pbc="F F F"
O        0.04200000       1.47870000       0.23180000
C        0.03880000       0.07400000      -0.01890000
C        0.64500000      -0.76380000       1.16670000
O       -0.44150000      -1.46170000       1.86030000
C       -1.47480000      -1.33360000       1.00470000
C       -1.32070000      -0.54740000      -0.09990000
C       -2.56810000      -0.58520000      -0.79960000
C       -3.40460000      -1.40260000      -0.07730000
N       -2.71770000      -1.86720000       1.05140000
H       -0.73600000       1.66690000       0.76860000
H        0.66620000      -0.04590000      -0.90790000
H        1.33620000      -1.52910000       0.80070000
H        1.14900000      -0.11930000       1.88890000
H       -2.82820000      -0.08350000      -1.71890000
H       -4.42230000      -1.70860000      -0.25370000
H       -3.07790000      -2.49390000       1.74910000
