21
Properties=species:S:1:pos:R:3 gdb_121980=T pbc="F F F"
C        0.00060000       1.60700000      -0.06450000
C       -0.00050000       0.08370000       0.00140000
C       -1.40520000      -0.51720000       0.01730000
C       -1.42670000      -2.04300000       0.14700000
C       -2.84540000      -2.61490000       0.14750000
O       -2.87200000      -4.02140000       0.32060000
O        0.68110000      -0.43230000      -1.16570000
C        1.95620000      -0.83670000      -1.03760000
O        2.60630000      -1.23550000      -1.95720000
H        1.02260000       1.99670000      -0.07690000
H       -0.50690000       1.94980000      -0.97100000
H       -0.51630000       2.02680000       0.80370000
H        0.54720000      -0.25050000       0.89430000
H       -1.95360000      -0.06370000       0.85260000
H       -1.92170000      -0.20930000      -0.90060000
H       -0.86180000      -2.48370000      -0.68410000
H       -0.92590000      -2.35420000       1.07260000
H       -3.41690000      -2.20460000       0.98810000
H       -3.36980000      -2.31310000      -0.77410000
H       -2.42460000      -4.41910000      -0.43320000
H        2.32760000      -0.76700000       0.00430000
