18
Properties=species:S:1:pos:R:3 gdb_71783=T pbc="F F F"
C       -0.03540000       1.51800000       0.03620000
C       -0.01420000       0.01460000      -0.01340000
C        0.46940000      -0.76900000      -1.24860000
C       -0.57950000      -1.80920000      -0.83380000
C       -0.15870000      -2.52380000       0.49970000
O        1.08880000      -1.98640000       0.99660000
C        0.39720000      -0.75390000       1.30120000
C       -0.98290000      -1.44620000       1.24160000
N       -1.36210000      -0.74410000      -0.04980000
H        0.98570000       1.91700000       0.06060000
H       -0.54880000       1.92840000      -0.83850000
H       -0.55850000       1.87460000       0.93090000
H        0.18590000      -0.26050000      -2.17340000
H        1.51500000      -1.07950000      -1.28290000
H       -1.11890000      -2.40150000      -1.57480000
H       -0.22150000      -3.60870000       0.58770000
H        0.84910000      -0.20270000       2.12750000
H       -1.69930000      -1.58770000       2.05010000
