18
Properties=species:S:1:pos:R:3 gdb_92411=T pbc="F F F"
O        0.26240000       1.15260000      -0.71840000
C        0.15150000      -0.09210000      -0.07390000
C        0.20530000      -0.13410000       1.47760000
N       -1.13250000      -0.80530000       1.55750000
C       -2.23540000       0.17960000       1.80560000
C       -2.37860000       0.50170000       0.29780000
C       -1.31050000      -0.60110000       0.03980000
C       -1.69310000      -1.72090000      -0.78510000
C       -2.00760000      -2.64580000      -1.48740000
H        1.19450000       1.34420000      -0.85870000
H        0.79580000      -0.84510000      -0.54200000
H        1.00440000      -0.74200000       1.91180000
H        0.22860000       0.86460000       1.92840000
H       -3.10760000      -0.31730000       2.24020000
H       -1.94740000       1.00830000       2.46040000
H       -3.35370000       0.29010000      -0.14150000
H       -2.04940000       1.49410000      -0.01170000
H       -2.28760000      -3.46580000      -2.10130000
