20
Properties=species:S:1:pos:R:3 gdb_122101=T pbc="F F F"
N        0.19220000       1.30320000      -0.34930000
C        0.02020000      -0.14690000      -0.26370000
C       -1.44930000      -0.45950000       0.09930000
N       -2.32620000       0.08740000      -0.92660000
C       -3.74550000       0.15410000      -0.57310000
C       -4.53590000       0.54500000      -1.82050000
O       -4.32150000      -0.37110000      -2.87110000
C       -1.63400000      -1.91400000       0.22850000
N       -1.76050000      -3.05610000       0.34800000
H        0.33120000       1.70430000       0.57280000
H        1.01440000       1.53170000      -0.89580000
H        0.22110000      -0.57930000      -1.24790000
H        0.67820000      -0.64470000       0.46180000
H       -1.65100000      -0.02780000       1.09910000
H       -1.96410000       1.01700000      -1.13130000
H       -4.06390000      -0.84350000      -0.25020000
H       -3.95400000       0.85730000       0.25230000
H       -5.60800000       0.55210000      -1.59710000
H       -4.25800000       1.57280000      -2.11820000
H       -3.37980000      -0.58640000      -2.83010000
