23
Properties=species:S:1:pos:R:3 gdb_106408=T pbc="F F F"
C       -1.42310000       1.72080000       0.16520000
O       -0.97010000       0.38390000       0.07710000
C       -1.97160000      -0.56180000       0.10980000
C       -3.01260000      -0.84790000       1.24590000
C       -3.23890000      -1.92540000       0.14430000
C       -3.16550000      -0.75970000      -0.88610000
C       -1.67390000      -2.09630000       0.02500000
C       -1.08590000      -2.65330000      -1.27740000
C       -0.90980000      -2.75500000       1.18030000
H       -0.53930000       2.36150000       0.12870000
H       -2.08680000       1.98020000      -0.67170000
H       -1.95960000       1.90610000       1.10650000
H       -2.64760000      -1.16540000       2.22020000
H       -3.81890000      -0.11830000       1.35230000
H       -3.98210000      -2.72050000       0.16470000
H       -3.97430000      -0.02860000      -0.81630000
H       -2.94480000      -0.99400000      -1.92510000
H       -1.55350000      -2.27870000      -2.18770000
H       -0.01870000      -2.41280000      -1.33490000
H       -1.17180000      -3.74570000      -1.28960000
H       -0.99880000      -3.84520000       1.11420000
H        0.15600000      -2.51310000       1.10550000
H       -1.24160000      -2.46000000       2.17550000
