18
Properties=species:S:1:pos:R:3 gdb_96526=T pbc="F F F"
C        0.01640000       1.44080000       0.08120000
N        0.04670000       0.00240000      -0.15910000
C       -1.23370000      -0.70830000      -0.12250000
C       -1.48720000      -1.59960000      -1.33630000
O       -0.68110000      -2.76350000      -1.34030000
C        0.68180000      -2.49570000      -1.37660000
O        1.20730000      -1.99820000      -0.14930000
C        1.23880000      -0.64340000       0.07000000
O        2.24930000      -0.10760000       0.45090000
H        1.02610000       1.83240000      -0.02900000
H       -0.64700000       1.92300000      -0.64320000
H       -0.33710000       1.67740000       1.09370000
H       -1.31720000      -1.31480000       0.78810000
H       -2.01950000       0.05100000      -0.08690000
H       -2.52200000      -1.95330000      -1.32010000
H       -1.32800000      -1.01910000      -2.25880000
H        1.18060000      -3.45250000      -1.53520000
H        0.92720000      -1.78910000      -2.18410000
