19
Properties=species:S:1:pos:R:3 gdb_62844=T pbc="F F F"
C       -0.12590000       1.49580000       0.05070000
C        0.02210000      -0.01230000      -0.06360000
O       -1.19670000      -0.60630000      -0.45050000
C        1.32920000      -0.58520000      -0.65960000
O        2.04970000      -0.01820000       0.55110000
C        0.84110000      -0.75730000       1.05730000
C        0.22150000      -1.64500000       2.14590000
C       -0.00950000      -2.67020000       0.93620000
C        1.15030000      -1.91720000       0.16170000
H        0.80330000       1.95930000       0.37690000
H       -0.40200000       1.92320000      -0.92260000
H       -0.92270000       1.74000000       0.76110000
H       -1.66750000       0.02160000      -1.00630000
H        1.83100000      -0.38830000      -1.61250000
H        0.95690000      -2.03040000       2.85580000
H       -0.65260000      -1.26640000       2.68160000
H        0.22870000      -3.71050000       1.16380000
H       -1.00340000      -2.59330000       0.50890000
H        2.12060000      -2.36680000       0.37860000
