21
Properties=species:S:1:pos:R:3 gdb_64292=T pbc="F F F"
C       -0.07850000       1.54860000       0.07410000
C        0.09080000       0.03590000      -0.00970000
O       -1.17700000      -0.62880000      -0.08910000
C        1.01640000      -0.44470000      -1.14960000
C        1.39220000      -1.88610000      -0.75130000
C        1.52920000      -1.83780000       0.77890000
C        2.75370000      -1.07680000       1.32720000
O        1.95680000       0.09170000       1.62640000
C        0.73970000      -0.58310000       1.23850000
H        0.87570000       2.02710000       0.30740000
H       -0.44580000       1.95390000      -0.87630000
H       -0.79990000       1.80500000       0.85570000
H       -1.60990000      -0.33800000      -0.89860000
H        0.52660000      -0.38010000      -2.12710000
H        1.90490000       0.19480000      -1.18910000
H        0.57810000      -2.56530000      -1.02020000
H        2.30120000      -2.24350000      -1.24550000
H        1.31170000      -2.78740000       1.26760000
H        3.19840000      -1.50190000       2.23570000
H        3.55430000      -0.85790000       0.60880000
H        0.02890000      -0.66990000       2.06630000
