16
Properties=species:S:1:pos:R:3 gdb_126028=T pbc="F F F"
C        0.01020000       1.59360000      -0.03200000
C        0.00280000       0.06450000       0.07310000
C        0.74330000      -0.64360000      -1.12900000
O        1.61170000      -1.70490000      -0.61970000
C        1.65210000      -1.48870000       0.72150000
C        0.81570000      -0.53500000       1.17480000
O        0.89830000      -0.41620000       2.50360000
N        1.85390000      -1.34500000       2.94980000
C        2.29600000      -1.98090000       1.87740000
H        1.03440000       1.97590000      -0.08140000
H       -0.52440000       1.92220000      -0.92910000
H       -0.48000000       2.04390000       0.83540000
H       -1.03850000      -0.28040000       0.13180000
H        0.05560000      -1.09850000      -1.84410000
H        1.37810000       0.07990000      -1.65340000
H        3.04550000      -2.74830000       1.99980000
