17
Properties=species:S:1:pos:R:3 gdb_110783=T pbc="F F F"
C        0.06960000       1.09540000       0.34780000
O       -0.22760000       0.05900000      -0.57890000
C       -1.40160000      -0.61210000      -0.28720000
C       -1.47000000      -2.06750000      -0.67940000
C       -0.14530000      -2.74200000      -0.95850000
C        0.64550000      -2.61380000       0.34610000
O        1.77070000      -2.94050000       0.56990000
O       -0.14700000      -2.03330000       1.30750000
C       -1.40580000      -1.67890000       0.78530000
H        1.00310000       1.55490000       0.01770000
H       -0.72260000       1.85750000       0.35780000
H        0.19690000       0.69490000       1.36040000
H       -2.31650000      -0.02560000      -0.39020000
H       -2.37660000      -2.45270000      -1.12830000
H       -0.26560000      -3.80250000      -1.19780000
H        0.43400000      -2.27840000      -1.75970000
H       -2.20980000      -1.80080000       1.50000000
