17
Properties=species:S:1:pos:R:3 gdb_3083=T pbc="F F F"
C       -0.11910000       1.56320000       0.07290000
C        0.02400000       0.06240000      -0.03980000
C        0.68970000      -0.61810000      -1.20620000
C        1.27960000       0.13350000      -2.37780000
C        1.37450000      -0.62990000       0.16320000
C        2.56350000       0.13440000       0.39590000
C        3.56770000       0.76670000       0.60020000
H        0.77810000       2.08770000      -0.26180000
H       -0.96640000       1.92010000      -0.52280000
H       -0.29630000       1.85450000       1.11350000
H       -0.80890000      -0.48720000       0.39160000
H        0.25840000      -1.57820000      -1.47840000
H        1.80690000       1.03640000      -2.06330000
H        2.00060000      -0.49400000      -2.91220000
H        0.49800000       0.42370000      -3.08860000
H        1.34570000      -1.57500000       0.69810000
H        4.45470000       1.32030000       0.78350000
