19
Properties=species:S:1:pos:R:3 gdb_67426=T pbc="F F F"
C       -0.17980000       1.51200000      -0.04400000
C       -0.00710000       0.02910000      -0.00900000
C        0.01930000      -1.03940000      -1.04970000
C        1.29690000      -1.65360000      -0.48560000
C        0.92110000      -0.94130000       0.84510000
C       -0.34580000      -1.69630000       1.32590000
C       -1.03730000      -1.11710000       0.09990000
C       -2.46660000      -1.02640000      -0.18190000
O       -3.33540000      -1.50380000       0.51340000
H        0.75580000       2.00760000      -0.32840000
H       -0.94270000       1.80340000      -0.77290000
H       -0.48200000       1.90580000       0.93250000
H       -0.31200000      -0.97890000      -2.07950000
H        1.39630000      -2.74390000      -0.46140000
H        2.18100000      -1.21050000      -0.95200000
H        1.68950000      -0.62630000       1.54830000
H       -0.27420000      -2.78450000       1.42470000
H       -0.76510000      -1.27280000       2.24140000
H       -2.72250000      -0.45990000      -1.10900000
