13
Properties=species:S:1:pos:R:3 gdb_28149=T pbc="F F F"
O        0.08240000       1.28520000       0.15640000
C        0.06960000      -0.04890000       0.01700000
N        0.09700000      -0.70230000      -1.12700000
C        0.06670000      -2.00810000      -0.69660000
C        0.02220000      -2.13700000       0.66700000
N        0.02420000      -0.82800000       1.14450000
N       -0.00770000      -3.42630000       1.09440000
C        0.01930000      -4.10510000      -0.04400000
N        0.06490000      -3.29920000      -1.16790000
H        0.11520000       1.65020000      -0.73690000
H       -0.00150000      -0.49040000       2.09070000
H        0.00800000      -5.18070000      -0.12420000
H        0.09110000      -3.61190000      -2.12290000
