18
Properties=species:S:1:pos:R:3 gdb_90352=T pbc="F F F"
C       -0.31570000       1.43370000       0.16940000
C        0.12790000       0.00480000      -0.03010000
O        1.39980000      -0.07770000      -0.80260000
C        2.06710000      -0.42970000       0.33580000
N        3.27250000      -0.29910000       0.66570000
C        3.36160000      -0.54820000       2.12180000
C        2.25160000       0.21480000       2.86730000
O        0.91640000      -0.13400000       2.45050000
C        0.85240000      -0.69550000       1.16450000
H        0.45550000       2.01710000       0.67840000
H       -0.53420000       1.90350000      -0.79330000
H       -1.22210000       1.45580000       0.78250000
H       -0.63130000      -0.60550000      -0.52490000
H        3.30450000      -1.62180000       2.34900000
H        4.33220000      -0.19390000       2.48050000
H        2.29560000       0.00920000       3.94130000
H        2.40550000       1.29180000       2.71340000
H        0.57290000      -1.75420000       1.22820000
