17
Properties=species:S:1:pos:R:3 gdb_18376=T pbc="F F F"
C       -0.03900000       1.50230000       0.26450000
C        1.30580000       2.12570000      -0.05990000
C        2.47450000       1.77410000       0.48380000
C        2.68930000       0.73250000       1.51400000
N        1.65000000       0.50540000       2.53180000
C        1.88780000      -0.55930000       1.54320000
C        0.83860000      -0.86240000       0.54330000
C       -0.00650000       0.01060000      -0.01220000
H       -0.30300000       1.68960000       1.30910000
H       -0.81230000       1.96820000      -0.35190000
H        1.31390000       2.89110000      -0.83190000
H        3.38000000       2.25860000       0.12640000
H        3.72130000       0.63250000       1.84290000
H        2.08170000       0.25750000       3.41710000
H        2.44250000      -1.42850000       1.88940000
H        0.79980000      -1.90000000       0.22020000
H       -0.70400000      -0.36120000      -0.75850000
