23
Properties=species:S:1:pos:R:3 gdb_40623=T pbc="F F F"
C       -0.24800000       1.38580000      -0.18010000
C        1.19850000       1.20590000       0.20900000
C        0.30340000      -0.00040000       0.05410000
C       -0.12140000      -0.77290000       1.27610000
C       -1.27840000      -1.81550000       1.11390000
C       -0.19470000      -2.81300000       0.60910000
C        0.69130000      -2.05960000       1.64430000
C        0.02920000      -2.46870000       2.97480000
C       -1.47520000      -2.28220000       2.56970000
H       -0.92520000       1.79220000       0.56420000
H       -0.47540000       1.68760000      -1.19670000
H        1.96110000       1.38460000      -0.54110000
H        1.49110000       1.49170000       1.21430000
H        0.47190000      -0.58710000      -0.84370000
H       -0.25710000      -0.06540000       2.10540000
H       -2.17280000      -1.58920000       0.53180000
H       -0.37070000      -3.88130000       0.77110000
H        0.10470000      -2.64650000      -0.42600000
H        1.78100000      -2.07920000       1.59650000
H        0.26440000      -3.49920000       3.25680000
H        0.32500000      -1.81870000       3.80380000
H       -1.98550000      -1.53240000       3.18160000
H       -2.04680000      -3.21270000       2.63440000
