18
Properties=species:S:1:pos:R:3 gdb_96639=T pbc="F F F"
C        0.50350000       1.32180000       0.19870000
N        0.61330000      -0.11640000       0.03110000
C        0.53250000      -0.58530000      -1.16040000
N        0.37130000       0.09810000      -2.32180000
C        0.65070000      -2.10250000      -1.34770000
O        0.42070000      -2.49070000      -2.67460000
C        2.04330000      -2.63510000      -0.92650000
N        2.43630000      -2.30640000       0.31580000
O        2.65800000      -3.34000000      -1.71490000
H        1.30020000       1.87050000      -0.32900000
H       -0.46060000       1.71470000      -0.16420000
H        0.57530000       1.57350000       1.25960000
H        0.12150000       1.07070000      -2.31870000
H        0.20840000      -0.45500000      -3.14900000
H       -0.08990000      -2.55760000      -0.67530000
H        1.21570000      -3.01370000      -2.90080000
H        1.94040000      -1.53500000       0.75980000
H        3.37100000      -2.55140000       0.60120000
