14
Properties=species:S:1:pos:R:3 gdb_69028=T pbc="F F F"
O        0.11920000       1.37100000      -0.23350000
C        0.05740000       0.03190000      -0.06790000
C       -0.34520000      -0.84730000      -1.20460000
C       -1.19620000      -1.03530000       0.02160000
C       -0.41910000      -1.86680000       1.05050000
C        0.61560000      -0.71470000       1.09860000
O        1.36640000      -0.33580000       1.95590000
C       -2.57550000      -0.72110000       0.08850000
N       -3.70120000      -0.45510000       0.15820000
H        0.25210000       1.77670000       0.63440000
H       -0.81040000      -0.28540000      -2.00910000
H        0.28740000      -1.66750000      -1.53620000
H       -0.91580000      -1.98030000       2.01590000
H       -0.06870000      -2.84010000       0.69680000
