17
Properties=species:S:1:pos:R:3 gdb_112302=T pbc="F F F"
C        0.09680000       1.49940000       0.09720000
C        0.08970000      -0.02870000       0.01370000
C        0.60340000      -0.55930000      -1.31990000
O        1.96550000      -0.11020000      -1.53670000
C        2.78930000      -1.11430000      -1.94840000
O        3.90310000      -0.92790000      -2.34010000
C        2.04060000      -2.41900000      -1.82500000
O        1.58930000      -2.62900000      -0.47360000
C        0.67760000      -2.07350000      -1.41820000
H        1.10830000       1.89040000      -0.03760000
H       -0.54180000       1.94310000      -0.67460000
H       -0.27280000       1.83510000       1.07010000
H        0.70470000      -0.46440000       0.80750000
H       -0.92970000      -0.41150000       0.15140000
H        0.00060000      -0.16660000      -2.14970000
H        2.34890000      -3.29230000      -2.38720000
H       -0.19800000      -2.66710000      -1.66180000
