17
Properties=species:S:1:pos:R:3 gdb_37211=T pbc="F F F"
C        0.06080000       1.54640000       0.20170000
C        1.53260000       1.82330000      -0.00890000
C        2.15990000       0.78470000      -0.58590000
C        3.25430000       0.10120000       0.21060000
O        2.95160000       0.18140000       1.63180000
C        2.46650000      -0.94160000       0.89580000
C        1.05740000      -1.02750000       0.27080000
C       -0.00740000       0.05520000      -0.12970000
C        1.14040000      -0.26830000      -1.02820000
H       -0.19940000       1.79140000       1.23900000
H       -0.63430000       2.10670000      -0.44000000
H        2.04860000       2.57010000       0.58480000
H        4.30530000       0.01460000      -0.04310000
H        2.89550000      -1.89490000       1.19920000
H        0.62830000      -2.02550000       0.29610000
H       -0.98590000      -0.38000000      -0.31830000
H        1.09170000      -0.69010000      -2.02600000
