17
Properties=species:S:1:pos:R:3 gdb_31544=T pbc="F F F"
C        0.26360000       1.01520000       0.65380000
N       -0.05720000       0.10590000      -0.45330000
C       -1.30110000      -0.54850000      -0.36300000
C       -2.58990000      -0.18790000      -0.68870000
C       -3.43190000      -1.29930000      -0.37220000
O       -4.78940000      -1.46820000      -0.57040000
C       -2.63130000      -2.29070000       0.13770000
O       -2.92260000      -3.54160000       0.57550000
N       -1.34240000      -1.83980000       0.14200000
H        1.25370000       1.45060000       0.48600000
H       -0.46420000       1.83120000       0.78290000
H        0.29890000       0.44760000       1.58830000
H        0.02240000       0.59270000      -1.33750000
H       -2.90090000       0.76020000      -1.10090000
H       -5.26070000      -0.79080000      -0.07420000
H       -3.87370000      -3.65230000       0.45630000
H       -0.53000000      -2.38470000       0.37420000
