17
Properties=species:S:1:pos:R:3 gdb_127520=T pbc="F F F"
C        0.14370000       1.39060000      -0.03860000
N       -0.03650000      -0.03490000       0.01580000
N        0.05070000      -0.78480000      -1.17000000
C        0.11090000      -2.00160000      -0.74230000
O        0.16350000      -3.10290000      -1.50070000
N        0.10160000      -2.12290000       0.61530000
C        0.19190000      -3.32560000       1.41450000
C        0.06420000      -0.82420000       1.14460000
N        0.10700000      -0.58180000       2.40090000
H        1.20150000       1.68610000      -0.00510000
H       -0.29580000       1.75730000      -0.96760000
H       -0.37870000       1.85620000       0.80170000
H        0.13000000      -2.81360000      -2.42190000
H       -0.31960000      -4.14270000       0.90310000
H        1.23390000      -3.61050000       1.59650000
H       -0.28450000      -3.12020000       2.37430000
H        0.06700000       0.41440000       2.59420000
