22
Properties=species:S:1:pos:R:3 gdb_59413=T pbc="F F F"
C        1.22700000       0.85710000      -0.91710000
C        1.76450000      -0.51060000      -0.46710000
C        3.29420000      -0.57980000      -0.56850000
C        1.30550000      -0.79040000       0.95010000
N       -0.05590000      -1.25990000       1.16180000
C        1.04670000      -2.17650000       1.50340000
C        1.19670000      -3.44930000       0.70040000
C        1.34580000      -2.29010000       2.96290000
O        0.93330000      -1.51490000       3.79500000
H        1.62860000       1.66250000      -0.29080000
H        1.51310000       1.06700000      -1.95270000
H        0.13590000       0.88550000      -0.84940000
H        1.32890000      -1.27070000      -1.12480000
H        3.76480000       0.16100000       0.08860000
H        3.67240000      -1.56650000      -0.28210000
H        3.62770000      -0.37380000      -1.59030000
H        1.69190000      -0.08500000       1.68760000
H       -0.41460000      -0.87560000       2.03700000
H        0.46140000      -4.19560000       1.02030000
H        1.04020000      -3.27020000      -0.36360000
H        2.19500000      -3.88080000       0.83440000
H        1.98640000      -3.15220000       3.25030000
