17
Properties=species:S:1:pos:R:3 gdb_110160=T pbc="F F F"
C       -0.06000000       1.42030000       0.22690000
N       -0.19370000       0.05340000      -0.28770000
C       -1.47560000      -0.54010000       0.01230000
C       -1.56020000      -2.07250000      -0.33330000
N       -1.93180000      -2.30150000       1.06640000
C       -1.65920000      -0.99630000       1.46920000
N       -1.56790000      -0.37530000       2.56320000
C       -2.55060000      -2.49630000      -1.32220000
N       -3.31890000      -2.82790000      -2.11900000
H        0.93000000       1.80150000      -0.03670000
H       -0.81940000       2.11660000      -0.16740000
H       -0.15160000       1.40060000       1.31460000
H       -0.06820000       0.06210000      -1.29590000
H       -2.35120000       0.01660000      -0.35950000
H       -0.57250000      -2.45770000      -0.60870000
H       -1.79950000      -3.15640000       1.58820000
H       -1.69800000      -0.98830000       3.36980000
