16
Properties=species:S:1:pos:R:3 gdb_31759=T pbc="F F F"
O        0.14360000       1.25710000       0.05350000
C       -0.03110000      -0.14360000       0.17200000
C       -1.46270000      -0.55390000       0.01360000
C       -2.50880000       0.16550000      -0.45520000
O       -3.62900000      -0.63190000      -0.40910000
C       -3.18670000      -1.80300000       0.08880000
C       -4.13740000      -2.94180000       0.27890000
O       -3.48660000      -4.04750000       0.85080000
N       -1.92140000      -1.82420000       0.36210000
H       -0.30410000       1.66960000       0.79970000
H        0.58040000      -0.59130000      -0.62010000
H        0.35400000      -0.53630000       1.12490000
H       -2.63640000       1.16090000      -0.84040000
H       -4.97040000      -2.61540000       0.91990000
H       -4.57860000      -3.20680000      -0.69540000
H       -2.55030000      -3.81600000       0.91900000
