22
Properties=species:S:1:pos:R:3 gdb_115411=T pbc="F F F"
C       -0.04120000       1.57440000       0.04280000
C       -0.03670000       0.04480000      -0.04040000
C        0.74810000      -0.51250000      -1.23230000
C        2.26320000      -0.22670000      -1.21940000
C        2.83240000      -1.24390000      -2.21410000
C        2.04920000      -2.54230000      -1.87710000
C        0.65210000      -2.05680000      -1.35990000
C        1.96800000      -3.47580000      -2.99550000
N        1.89860000      -4.20690000      -3.88870000
H        0.97030000       1.97480000       0.16450000
H       -0.46630000       2.01800000      -0.86450000
H       -0.63790000       1.92060000       0.89220000
H        0.38040000      -0.37500000       0.88560000
H       -1.07170000      -0.31630000      -0.09720000
H        0.33730000      -0.06910000      -2.14980000
H        2.51020000       0.80370000      -1.48740000
H        2.66980000      -0.41110000      -0.21540000
H        2.60760000      -0.93480000      -3.24020000
H        3.91330000      -1.38540000      -2.14120000
H        2.56880000      -3.06020000      -1.06350000
H        0.44140000      -2.51590000      -0.38930000
H       -0.15070000      -2.35830000      -2.03580000
