21
Properties=species:S:1:pos:R:3 gdb_119383=T pbc="F F F"
C        0.04640000       1.33930000      -0.00010000
O        0.04510000      -0.06750000      -0.02130000
C        0.62720000      -0.63430000       1.13490000
C        0.59390000      -2.12920000       1.01660000
C       -0.64940000      -3.06520000       0.96790000
C        0.57230000      -4.02220000       0.87410000
C        1.18280000      -3.00410000      -0.13610000
C        1.19530000      -3.16880000       2.02160000
O        2.56400000      -3.19700000       2.31320000
H        1.06830000       1.74720000       0.05870000
H       -0.41740000       1.68200000      -0.92840000
H       -0.52800000       1.73700000       0.85200000
H        1.67080000      -0.29190000       1.25070000
H        0.08230000      -0.31440000       2.04070000
H       -1.25780000      -3.12500000       1.87560000
H       -1.26690000      -2.98580000       0.07200000
H        0.55300000      -5.10900000       0.78850000
H        0.68490000      -2.91800000      -1.10410000
H        2.26910000      -3.00150000      -0.27760000
H        0.68450000      -3.23220000       2.98680000
H        3.06270000      -3.22060000       1.49020000
