21
Properties=species:S:1:pos:R:3 gdb_116018=T pbc="F F F"
C        0.07600000       1.56650000      -0.18360000
C        0.01900000       0.05670000       0.07190000
C       -1.40350000      -0.52140000       0.12730000
C       -1.44290000      -2.04550000      -0.09520000
C       -2.87910000      -2.58150000      -0.12690000
C       -3.70130000      -2.05040000       1.01190000
C       -3.35170000      -0.97240000       1.72410000
C       -2.13530000      -0.18000000       1.43070000
O       -1.76640000       0.70010000       2.18500000
H        1.11320000       1.91210000      -0.23940000
H       -0.40870000       1.82330000      -1.13300000
H       -0.42500000       2.11240000       0.61750000
H        0.56900000      -0.46580000      -0.72110000
H        0.53170000      -0.17490000       1.01290000
H       -2.00280000      -0.05910000      -0.67560000
H       -0.92510000      -2.29580000      -1.02710000
H       -0.89140000      -2.54040000       0.71500000
H       -3.36710000      -2.30350000      -1.07450000
H       -2.88540000      -3.67790000      -0.10800000
H       -4.61930000      -2.58200000       1.25440000
H       -3.94220000      -0.62230000       2.56520000
