15
Properties=species:S:1:pos:R:3 gdb_28606=T pbc="F F F"
O        1.26470000       0.76170000       0.00800000
C        0.32360000      -0.20600000      -0.08530000
C       -0.83840000      -0.36780000      -0.79500000
N       -1.41790000      -1.57880000      -0.46480000
C       -0.61830000      -2.13100000       0.41290000
N        0.47060000      -1.33390000       0.67680000
C       -0.78500000      -3.44360000       1.05960000
C        0.28750000      -4.45670000       1.07840000
O        0.01790000      -3.65510000       2.23120000
H        0.99980000       1.49930000      -0.55040000
H       -1.28710000       0.30610000      -1.50840000
H        1.16030000      -1.49510000       1.39270000
H       -1.81630000      -3.78410000       1.12380000
H        0.02910000      -5.51030000       1.17240000
H        1.22690000      -4.24650000       0.56990000
