14
Properties=species:S:1:pos:R:3 gdb_23885=T pbc="F F F"
N       -0.07870000       1.45510000       0.00120000
C        0.00910000       0.00080000      -0.03590000
C        0.66080000      -0.56870000      -1.30600000
O       -0.10070000      -0.06540000      -2.39270000
C        0.74480000      -0.47620000       1.21060000
F        0.10530000      -0.14620000       2.33200000
F        0.89360000      -1.81260000       1.20500000
F        1.98060000       0.06080000       1.27410000
H        0.85960000       1.84760000      -0.00840000
H       -0.52610000       1.75970000      -0.85810000
H       -1.00750000      -0.40380000       0.03210000
H        1.70910000      -0.23580000      -1.35660000
H        0.65130000      -1.66660000      -1.27900000
H        0.30920000      -0.35550000      -3.21210000
