18
Properties=species:S:1:pos:R:3 gdb_39795=T pbc="F F F"
C       -0.02210000       1.52260000      -0.01000000
N        1.25650000       0.74350000       0.03900000
C       -0.01110000       0.06160000       0.00290000
C       -0.55810000      -1.02710000       0.93990000
N       -1.79380000      -1.01960000       0.03340000
C       -0.60060000      -1.01470000      -0.92320000
C        0.09830000      -2.04840000      -0.01190000
C        1.33130000      -2.84200000      -0.02470000
N       -0.01830000      -3.48930000      -0.07260000
H       -0.24020000       2.08480000       0.89320000
H       -0.28560000       2.02820000      -0.93530000
H        1.70170000       0.73950000      -0.87590000
H       -0.62870000      -1.02980000       2.02790000
H       -2.18750000      -1.96600000       0.02770000
H       -0.72150000      -1.01100000      -2.00670000
H        1.91420000      -2.95390000      -0.93480000
H        1.90720000      -2.91740000       0.89390000
H       -0.24530000      -3.87480000       0.84170000
