19
Properties=species:S:1:pos:R:3 gdb_83941=T pbc="F F F"
O        0.13740000       1.40630000      -0.12320000
C        0.00600000       0.01920000       0.01170000
C        0.23490000      -0.67520000       1.40000000
C       -0.45290000       0.16130000       2.50390000
C       -1.98700000       0.18180000       2.29880000
C       -2.39900000       0.18050000       0.80670000
C       -1.40820000      -0.65890000      -0.03300000
C       -0.76300000      -1.72260000       0.87370000
O       -0.89020000      -2.90570000       1.00600000
H       -0.42220000       1.84800000       0.52250000
H        0.66340000      -0.41130000      -0.74690000
H        1.24120000      -0.99520000       1.67340000
H       -0.21950000      -0.25370000       3.48840000
H       -0.02670000       1.17300000       2.49170000
H       -2.39520000      -0.72600000       2.75660000
H       -2.44120000       1.02460000       2.82900000
H       -3.41060000      -0.22220000       0.70530000
H       -2.43360000       1.19670000       0.39270000
H       -1.81940000      -0.96490000      -0.99590000
