19
Properties=species:S:1:pos:R:3 gdb_105807=T pbc="F F F"
C       -0.18560000       1.53450000      -0.02920000
C        0.09460000       0.02560000       0.02980000
C        0.73780000      -0.49180000      -1.22840000
C       -0.00740000      -1.00900000      -2.43340000
O        0.04100000      -0.56500000      -3.74520000
C        0.93950000      -1.95710000      -1.73200000
C        2.43330000      -1.62190000      -1.97020000
O        2.55510000      -0.52610000      -2.90910000
C        2.25210000      -0.24860000      -1.52360000
H        0.73640000       2.10460000      -0.18660000
H       -0.86530000       1.77310000      -0.85290000
H       -0.63900000       1.88720000       0.90220000
H        0.73390000      -0.19780000       0.89550000
H       -0.84280000      -0.51840000       0.19830000
H       -1.04090000      -1.23740000      -2.17520000
H        0.97440000      -0.38860000      -3.92540000
H        0.61920000      -2.88050000      -1.26360000
H        3.27590000      -2.29800000      -1.89760000
H        2.91040000       0.43710000      -1.00320000
