19
Properties=species:S:1:pos:R:3 gdb_54304=T pbc="F F F"
C       -0.02740000       1.63740000       0.02390000
C        0.10770000       0.13290000      -0.15260000
O        1.17620000      -0.35960000      -0.45350000
C       -1.08160000      -0.74880000       0.07910000
C       -2.23130000      -0.29070000       0.96050000
C       -2.43120000      -0.34280000      -0.51720000
C       -0.74730000      -2.21620000       0.04690000
C       -0.56310000      -3.00900000       1.26600000
O       -1.76870000      -3.10860000       0.49590000
H        0.82140000       2.12200000      -0.45990000
H       -0.96230000       2.03940000      -0.37450000
H        0.00120000       1.87820000       1.09310000
H       -2.70390000      -1.06820000       1.54910000
H       -2.15020000       0.67450000       1.44570000
H       -2.48970000       0.58110000      -1.08010000
H       -3.02580000      -1.15760000      -0.91440000
H       -0.22650000      -2.54070000      -0.85160000
H        0.07460000      -3.89050000       1.24710000
H       -0.67350000      -2.53030000       2.23760000
