17
Properties=species:S:1:pos:R:3 gdb_36012=T pbc="F F F"
N       -0.03700000      -1.14750000       0.14010000
C        0.00450000       0.00570000       0.08900000
C        0.07330000       1.46370000       0.04790000
C        1.51560000       2.00640000      -0.15440000
C        2.04140000       1.61650000      -1.46900000
N        2.44680000       1.33780000      -2.51420000
C        1.55400000       3.51890000       0.01290000
C        1.66310000       4.10670000       1.39820000
C        2.82650000       4.19680000       0.44240000
H       -0.57770000       1.83290000      -0.75110000
H       -0.31130000       1.86300000       0.99170000
H        2.16010000       1.55070000       0.60680000
H        0.93500000       4.05370000      -0.70170000
H        1.09860000       5.00570000       1.61690000
H        1.75110000       3.42270000       2.23650000
H        3.69220000       3.57290000       0.63750000
H        3.06300000       5.15740000       0.00050000
