17
Properties=species:S:1:pos:R:3 gdb_70537=T pbc="F F F"
C       -0.13040000       1.49230000       0.03260000
C        0.05260000      -0.00400000       0.03750000
C       -1.01020000      -0.84860000      -0.66330000
C       -1.81270000      -1.71080000       0.30440000
O       -2.99280000      -1.90280000       0.20650000
O       -1.12440000      -2.27260000       1.32940000
C        0.30750000      -2.12560000       1.39180000
C        0.75630000      -0.70290000       1.12270000
O        1.39680000      -0.47230000      -0.13860000
H        0.67100000       1.98040000       0.59200000
H       -0.11680000       1.87510000      -0.99360000
H       -1.09170000       1.76600000       0.47990000
H       -1.72490000      -0.24320000      -1.22160000
H       -0.50650000      -1.51210000      -1.37600000
H        0.57330000      -2.45390000       2.39780000
H        0.78070000      -2.79810000       0.66760000
H        1.17430000      -0.14030000       1.95500000
