18
Properties=species:S:1:pos:R:3 gdb_112170=T pbc="F F F"
C       -0.21410000       1.56240000       0.11160000
C       -0.12800000       0.04660000      -0.07170000
N       -1.34940000      -0.67870000       0.26810000
C        0.55320000      -0.50460000      -1.35890000
C        1.13810000       0.40950000      -2.41550000
O        1.92210000      -0.32190000      -3.33750000
O        1.64410000      -1.07330000      -0.53380000
C        1.07580000      -0.61790000       0.62130000
O        1.45930000      -0.75710000       1.73820000
H        0.72270000       2.07570000      -0.12320000
H       -1.00090000       1.98020000      -0.52640000
H       -0.46480000       1.78590000       1.15290000
H       -1.46150000      -0.68620000       1.27870000
H       -2.16040000      -0.19580000      -0.11000000
H       -0.00890000      -1.32250000      -1.81350000
H        0.32830000       0.87340000      -2.98960000
H        1.72000000       1.21420000      -1.94280000
H        2.61420000      -0.76330000      -2.83150000
