24
Properties=species:S:1:pos:R:3 gdb_87207=T pbc="F F F"
C       -0.02080000       1.45250000      -0.25610000
C        0.15540000      -0.03230000      -0.02100000
C        1.52600000      -0.66360000       0.06110000
C        0.64350000      -0.62800000       1.28790000
C        1.03480000       0.26960000       2.44660000
C       -0.01460000      -1.93740000       1.69070000
N        0.87680000      -2.80110000       2.46610000
C        0.73550000      -2.76150000       3.91850000
C        0.23910000      -3.92700000       3.13940000
H        0.78400000       2.04050000       0.19320000
H       -0.02000000       1.67250000      -1.32960000
H       -0.96930000       1.81690000       0.15520000
H       -0.59690000      -0.63350000      -0.52840000
H        1.70020000      -1.61900000      -0.42240000
H        2.38340000       0.00270000       0.04290000
H        1.48350000       1.20590000       2.10630000
H        0.16530000       0.52440000       3.06550000
H        1.76780000      -0.22830000       3.08880000
H       -0.95320000      -1.72820000       2.24080000
H       -0.29380000      -2.49120000       0.78640000
H        1.65820000      -2.82720000       4.48830000
H       -0.01390000      -2.09310000       4.34060000
H       -0.84090000      -4.03400000       3.04350000
H        0.79130000      -4.86250000       3.12540000
