16
Properties=species:S:1:pos:R:3 gdb_76318=T pbc="F F F"
O        0.17280000       1.20650000      -0.26070000
C        0.06770000      -0.18550000      -0.08330000
C        0.21520000      -0.56620000       1.42210000
O        0.91490000       0.39510000       2.17320000
C       -1.35170000      -0.63130000       1.55790000
C       -1.88520000       0.52820000       2.23960000
N       -2.21660000       1.47720000       2.81370000
C       -1.43910000      -0.57770000      -0.02990000
O       -2.32140000       0.31030000      -0.61650000
H        0.66290000       1.53710000       0.50900000
H        0.69930000      -0.72160000      -0.79950000
H        0.66660000      -1.55070000       1.57340000
H        0.30520000       0.84120000       2.77630000
H       -1.74350000      -1.54120000       2.01680000
H       -1.63730000      -1.58080000      -0.41570000
H       -1.87610000       1.17210000      -0.60230000
