17
Properties=species:S:1:pos:R:3 gdb_123897=T pbc="F F F"
C       -0.01420000       1.45950000       0.06910000
C        1.42570000       1.99180000      -0.03170000
N        2.09670000       1.30860000      -1.12620000
N        3.25730000       1.75010000      -1.65290000
N        3.61930000       0.88660000      -2.56070000
C        2.69910000      -0.11480000      -2.61530000
C        1.70890000       0.13750000      -1.69120000
C        0.41970000      -0.51500000      -1.26940000
N       -0.10340000       0.00230000      -0.00060000
H       -0.46220000       1.80600000       1.00480000
H       -0.61460000       1.87110000      -0.75140000
H        1.45320000       3.06760000      -0.22290000
H        1.97370000       1.80120000       0.89910000
H        2.79920000      -0.93890000      -3.30350000
H       -0.34230000      -0.35190000      -2.04440000
H        0.54710000      -1.59810000      -1.18620000
H        0.41430000      -0.40700000       0.77180000
