18
Properties=species:S:1:pos:R:3 gdb_59407=T pbc="F F F"
C        0.00400000       1.45890000      -0.27950000
C        0.11050000       0.02160000       0.22770000
O        0.78270000      -0.07030000       1.47660000
C       -1.26470000      -0.61170000       0.34260000
O       -1.91790000      -1.03100000      -0.85580000
C       -1.54580000      -2.04450000       0.09300000
C       -0.51270000      -3.06300000      -0.33450000
C       -2.67830000      -2.61460000       0.81230000
N       -3.55880000      -3.08620000       1.39370000
H        0.99850000       1.90620000      -0.35360000
H       -0.47210000       1.48640000      -1.26400000
H       -0.60050000       2.06910000       0.40340000
H        0.71880000      -0.55860000      -0.47140000
H        0.38990000       0.57190000       2.07850000
H       -1.92680000      -0.10480000       1.05000000
H        0.27910000      -2.59030000      -0.91560000
H       -0.07200000      -3.54560000       0.54230000
H       -0.98190000      -3.83340000      -0.95260000
