17
Properties=species:S:1:pos:R:3 gdb_24608=T pbc="F F F"
C       -0.24790000       0.97400000       0.33550000
C        0.95880000       1.19280000      -0.59540000
C        1.75690000       0.44220000       0.50680000
O        0.53870000       0.17230000       1.24360000
C        2.47870000      -0.80750000       0.14390000
C        2.02640000      -2.09650000       0.25600000
N        3.05650000      -2.88150000      -0.21570000
C        4.06630000      -2.04500000      -0.58670000
N        3.75380000      -0.78680000      -0.38110000
H       -0.62900000       1.88090000       0.82260000
H       -1.09450000       0.41240000      -0.07610000
H        0.90930000       0.65380000      -1.54220000
H        1.25320000       2.22670000      -0.77780000
H        2.42660000       1.10620000       1.06980000
H        1.10620000      -2.50680000       0.63280000
H        3.06530000      -3.88650000      -0.25900000
H        4.99770000      -2.40980000      -0.99380000
