14
Properties=species:S:1:pos:R:3 gdb_20144=T pbc="F F F"
O        0.00430000       0.03230000       0.18890000
C       -0.01430000       1.22710000       0.04130000
C       -1.19930000       2.14450000      -0.05840000
C       -0.82080000       3.49960000       0.52500000
C       -0.83830000       3.31510000      -0.96350000
C        0.72410000       3.33700000      -0.98440000
C        0.74150000       3.52120000       0.50410000
C        1.14170000       2.17700000      -0.09000000
H       -2.21210000       1.77170000      -0.00030000
H       -1.47300000       4.07600000       1.16560000
H       -1.50670000       3.71950000      -1.71020000
H        1.36060000       3.75970000      -1.74860000
H        1.39440000       4.11550000       1.12730000
H        2.16570000       1.83250000      -0.05950000
